/*---------------------------------------------------------------------------*\
  =========                 |
  \\      /  F ield         | OpenFOAM: The Open Source CFD Toolbox
   \\    /   O peration     | Website:  https://openfoam.org
    \\  /    A nd           | Version:  10
     \\/     M anipulation  |
\*---------------------------------------------------------------------------*/
Build  : 10-03dd22794e29
Exec   : tranProjFoam
Date   : Sep 24 2025
Time   : 08:44:27
Host   : "NB"
PID    : 5469
I/O    : uncollated
Case   : /home/yufan/xd/solvers/CFD/1-tranProjFoam/testCase
nProcs : 1
sigFpe : Enabling floating point exception trapping (FOAM_SIGFPE).
fileModificationChecking : Monitoring run-time modified files using timeStampMaster (fileModificationSkew 10)
allowSystemOperations : Allowing user-supplied system call operations

// * * * * * * * * * * * * * * * * * * * * * * * * * * * * * * * * * * * * * //
Create time

Create mesh for time = 0


SIMPLE: Convergence criteria found
        p: tolerance 0.001
        U: tolerance 0.001

Reading field U

Reading field p

Reading physicalProperties

Reading diffusivity DT

Reading/calculating face flux field phi

No fvModels present
No fvConstraints present

Calculating scalar transport

Courant Number mean: 8.74894e-05 max: 0.0158359
Time = 1e-05s

diagonal:  Solving for Ux, Initial residual = 0, Final residual = 0, No Iterations 0
diagonal:  Solving for Uy, Initial residual = 0, Final residual = 0, No Iterations 0
GAMG:  Solving for p, Initial residual = 1, Final residual = 9.51142e-07, No Iterations 27
Time = 2e-05s

diagonal:  Solving for Ux, Initial residual = 0, Final residual = 0, No Iterations 0
diagonal:  Solving for Uy, Initial residual = 0, Final residual = 0, No Iterations 0
GAMG:  Solving for p, Initial residual = 0.068016, Final residual = 9.25481e-07, No Iterations 20
Time = 3e-05s

diagonal:  Solving for Ux, Initial residual = 0, Final residual = 0, No Iterations 0
diagonal:  Solving for Uy, Initial residual = 0, Final residual = 0, No Iterations 0
GAMG:  Solving for p, Initial residual = 0.859954, Final residual = 5.00599e-07, No Iterations 21
Time = 4e-05s

diagonal:  Solving for Ux, Initial residual = 0, Final residual = 0, No Iterations 0
diagonal:  Solving for Uy, Initial residual = 0, Final residual = 0, No Iterations 0
GAMG:  Solving for p, Initial residual = 0.585196, Final residual = 5.14058e-07, No Iterations 19
Time = 5e-05s

diagonal:  Solving for Ux, Initial residual = 0, Final residual = 0, No Iterations 0
diagonal:  Solving for Uy, Initial residual = 0, Final residual = 0, No Iterations 0
GAMG:  Solving for p, Initial residual = 0.193591, Final residual = 5.01402e-07, No Iterations 21
Time = 6e-05s

diagonal:  Solving for Ux, Initial residual = 0, Final residual = 0, No Iterations 0
diagonal:  Solving for Uy, Initial residual = 0, Final residual = 0, No Iterations 0
GAMG:  Solving for p, Initial residual = 0.118638, Final residual = 5.1424e-07, No Iterations 20
Time = 7e-05s

diagonal:  Solving for Ux, Initial residual = 0, Final residual = 0, No Iterations 0
diagonal:  Solving for Uy, Initial residual = 0, Final residual = 0, No Iterations 0
GAMG:  Solving for p, Initial residual = 0.088254, Final residual = 4.71119e-07, No Iterations 18
Time = 8e-05s

diagonal:  Solving for Ux, Initial residual = 0, Final residual = 0, No Iterations 0
diagonal:  Solving for Uy, Initial residual = 0, Final residual = 0, No Iterations 0
GAMG:  Solving for p, Initial residual = 0.0740972, Final residual = 5.20994e-07, No Iterations 20
Time = 9e-05s

diagonal:  Solving for Ux, Initial residual = 0, Final residual = 0, No Iterations 0
diagonal:  Solving for Uy, Initial residual = 0, Final residual = 0, No Iterations 0
GAMG:  Solving for p, Initial residual = 0.0698991, Final residual = 6.6909e-07, No Iterations 17
Time = 0.0001s

diagonal:  Solving for Ux, Initial residual = 0, Final residual = 0, No Iterations 0
diagonal:  Solving for Uy, Initial residual = 0, Final residual = 0, No Iterations 0
GAMG:  Solving for p, Initial residual = 0.0690178, Final residual = 9.4173e-07, No Iterations 17
Time = 0.00011s

diagonal:  Solving for Ux, Initial residual = 0, Final residual = 0, No Iterations 0
diagonal:  Solving for Uy, Initial residual = 0, Final residual = 0, No Iterations 0
GAMG:  Solving for p, Initial residual = 0.0575855, Final residual = 4.82373e-07, No Iterations 20
Time = 0.00012s

diagonal:  Solving for Ux, Initial residual = 0, Final residual = 0, No Iterations 0
diagonal:  Solving for Uy, Initial residual = 0, Final residual = 0, No Iterations 0
GAMG:  Solving for p, Initial residual = 0.0648965, Final residual = 4.6944e-07, No Iterations 16
Time = 0.00013s

diagonal:  Solving for Ux, Initial residual = 0, Final residual = 0, No Iterations 0
diagonal:  Solving for Uy, Initial residual = 0, Final residual = 0, No Iterations 0
GAMG:  Solving for p, Initial residual = 0.0657847, Final residual = 9.69032e-07, No Iterations 17
Time = 0.00014s

diagonal:  Solving for Ux, Initial residual = 0, Final residual = 0, No Iterations 0
diagonal:  Solving for Uy, Initial residual = 0, Final residual = 0, No Iterations 0
GAMG:  Solving for p, Initial residual = 0.0503004, Final residual = 7.76908e-07, No Iterations 20
Time = 0.00015s

diagonal:  Solving for Ux, Initial residual = 0, Final residual = 0, No Iterations 0
diagonal:  Solving for Uy, Initial residual = 0, Final residual = 0, No Iterations 0
GAMG:  Solving for p, Initial residual = 0.0789664, Final residual = 9.37749e-07, No Iterations 20
Time = 0.00016s

diagonal:  Solving for Ux, Initial residual = 0, Final residual = 0, No Iterations 0
diagonal:  Solving for Uy, Initial residual = 0, Final residual = 0, No Iterations 0
GAMG:  Solving for p, Initial residual = 0.0460835, Final residual = 5.01583e-07, No Iterations 20
Time = 0.00017s

diagonal:  Solving for Ux, Initial residual = 0, Final residual = 0, No Iterations 0
diagonal:  Solving for Uy, Initial residual = 0, Final residual = 0, No Iterations 0
GAMG:  Solving for p, Initial residual = 0.0762959, Final residual = 9.99858e-07, No Iterations 21
Time = 0.00018s

diagonal:  Solving for Ux, Initial residual = 0, Final residual = 0, No Iterations 0
diagonal:  Solving for Uy, Initial residual = 0, Final residual = 0, No Iterations 0
GAMG:  Solving for p, Initial residual = 0.0474569, Final residual = 3.0776e-07, No Iterations 22
Time = 0.00019s

diagonal:  Solving for Ux, Initial residual = 0, Final residual = 0, No Iterations 0
diagonal:  Solving for Uy, Initial residual = 0, Final residual = 0, No Iterations 0
GAMG:  Solving for p, Initial residual = 0.0918201, Final residual = 6.73618e-07, No Iterations 21
Time = 0.0002s

diagonal:  Solving for Ux, Initial residual = 0, Final residual = 0, No Iterations 0
diagonal:  Solving for Uy, Initial residual = 0, Final residual = 0, No Iterations 0
GAMG:  Solving for p, Initial residual = 0.0760688, Final residual = 4.08766e-07, No Iterations 18
Time = 0.00021s

diagonal:  Solving for Ux, Initial residual = 0, Final residual = 0, No Iterations 0
diagonal:  Solving for Uy, Initial residual = 0, Final residual = 0, No Iterations 0
GAMG:  Solving for p, Initial residual = 0.0394412, Final residual = 3.23884e-07, No Iterations 22
Time = 0.00022s

diagonal:  Solving for Ux, Initial residual = 0, Final residual = 0, No Iterations 0
diagonal:  Solving for Uy, Initial residual = 0, Final residual = 0, No Iterations 0
GAMG:  Solving for p, Initial residual = 0.0776139, Final residual = 7.43263e-07, No Iterations 20
Time = 0.00023s

diagonal:  Solving for Ux, Initial residual = 0, Final residual = 0, No Iterations 0
diagonal:  Solving for Uy, Initial residual = 0, Final residual = 0, No Iterations 0
GAMG:  Solving for p, Initial residual = 0.093743, Final residual = 6.69464e-07, No Iterations 19
Time = 0.00024s

diagonal:  Solving for Ux, Initial residual = 0, Final residual = 0, No Iterations 0
diagonal:  Solving for Uy, Initial residual = 0, Final residual = 0, No Iterations 0
GAMG:  Solving for p, Initial residual = 0.0457075, Final residual = 8.6114e-07, No Iterations 20
Time = 0.00025s

diagonal:  Solving for Ux, Initial residual = 0, Final residual = 0, No Iterations 0
diagonal:  Solving for Uy, Initial residual = 0, Final residual = 0, No Iterations 0
GAMG:  Solving for p, Initial residual = 0.076143, Final residual = 7.98264e-07, No Iterations 17
Time = 0.00026s

diagonal:  Solving for Ux, Initial residual = 0, Final residual = 0, No Iterations 0
diagonal:  Solving for Uy, Initial residual = 0, Final residual = 0, No Iterations 0
GAMG:  Solving for p, Initial residual = 0.047458, Final residual = 5.19922e-07, No Iterations 20
Time = 0.00027s

diagonal:  Solving for Ux, Initial residual = 0, Final residual = 0, No Iterations 0
diagonal:  Solving for Uy, Initial residual = 0, Final residual = 0, No Iterations 0
GAMG:  Solving for p, Initial residual = 0.0556059, Final residual = 7.9577e-07, No Iterations 20
Time = 0.00028s

diagonal:  Solving for Ux, Initial residual = 0, Final residual = 0, No Iterations 0
diagonal:  Solving for Uy, Initial residual = 0, Final residual = 0, No Iterations 0
GAMG:  Solving for p, Initial residual = 0.0661796, Final residual = 4.92921e-07, No Iterations 18
Time = 0.00029s

diagonal:  Solving for Ux, Initial residual = 0, Final residual = 0, No Iterations 0
diagonal:  Solving for Uy, Initial residual = 0, Final residual = 0, No Iterations 0
GAMG:  Solving for p, Initial residual = 0.0401431, Final residual = 6.53205e-07, No Iterations 17
Time = 0.0003s

diagonal:  Solving for Ux, Initial residual = 0, Final residual = 0, No Iterations 0
diagonal:  Solving for Uy, Initial residual = 0, Final residual = 0, No Iterations 0
GAMG:  Solving for p, Initial residual = 0.0444109, Final residual = 3.13373e-07, No Iterations 16
Time = 0.00031s

diagonal:  Solving for Ux, Initial residual = 0, Final residual = 0, No Iterations 0
diagonal:  Solving for Uy, Initial residual = 0, Final residual = 0, No Iterations 0
GAMG:  Solving for p, Initial residual = 0.0415958, Final residual = 6.64053e-07, No Iterations 20
Time = 0.00032s

diagonal:  Solving for Ux, Initial residual = 0, Final residual = 0, No Iterations 0
diagonal:  Solving for Uy, Initial residual = 0, Final residual = 0, No Iterations 0
GAMG:  Solving for p, Initial residual = 0.0687953, Final residual = 7.35874e-07, No Iterations 20
Time = 0.00033s

diagonal:  Solving for Ux, Initial residual = 0, Final residual = 0, No Iterations 0
diagonal:  Solving for Uy, Initial residual = 0, Final residual = 0, No Iterations 0
GAMG:  Solving for p, Initial residual = 0.0557898, Final residual = 4.86029e-07, No Iterations 18
Time = 0.00034s

diagonal:  Solving for Ux, Initial residual = 0, Final residual = 0, No Iterations 0
diagonal:  Solving for Uy, Initial residual = 0, Final residual = 0, No Iterations 0
GAMG:  Solving for p, Initial residual = 0.0485364, Final residual = 9.87449e-07, No Iterations 17
Time = 0.00035s

diagonal:  Solving for Ux, Initial residual = 0, Final residual = 0, No Iterations 0
diagonal:  Solving for Uy, Initial residual = 0, Final residual = 0, No Iterations 0
GAMG:  Solving for p, Initial residual = 0.0570871, Final residual = 7.5814e-07, No Iterations 17
Time = 0.00036s

diagonal:  Solving for Ux, Initial residual = 0, Final residual = 0, No Iterations 0
diagonal:  Solving for Uy, Initial residual = 0, Final residual = 0, No Iterations 0
GAMG:  Solving for p, Initial residual = 0.0513744, Final residual = 6.77779e-07, No Iterations 18
Time = 0.00037s

diagonal:  Solving for Ux, Initial residual = 0, Final residual = 0, No Iterations 0
diagonal:  Solving for Uy, Initial residual = 0, Final residual = 0, No Iterations 0
GAMG:  Solving for p, Initial residual = 0.0676838, Final residual = 3.3953e-07, No Iterations 22
Time = 0.00038s

diagonal:  Solving for Ux, Initial residual = 0, Final residual = 0, No Iterations 0
diagonal:  Solving for Uy, Initial residual = 0, Final residual = 0, No Iterations 0
GAMG:  Solving for p, Initial residual = 0.0564071, Final residual = 7.8118e-07, No Iterations 20
Time = 0.00039s

diagonal:  Solving for Ux, Initial residual = 0, Final residual = 0, No Iterations 0
diagonal:  Solving for Uy, Initial residual = 0, Final residual = 0, No Iterations 0
GAMG:  Solving for p, Initial residual = 0.0686658, Final residual = 8.51967e-07, No Iterations 20
Time = 0.0004s

diagonal:  Solving for Ux, Initial residual = 0, Final residual = 0, No Iterations 0
diagonal:  Solving for Uy, Initial residual = 0, Final residual = 0, No Iterations 0
GAMG:  Solving for p, Initial residual = 0.111028, Final residual = 4.60837e-07, No Iterations 22
Time = 0.00041s

diagonal:  Solving for Ux, Initial residual = 0, Final residual = 0, No Iterations 0
diagonal:  Solving for Uy, Initial residual = 0, Final residual = 0, No Iterations 0
GAMG:  Solving for p, Initial residual = 0.0882203, Final residual = 3.13023e-07, No Iterations 22
Time = 0.00042s

diagonal:  Solving for Ux, Initial residual = 0, Final residual = 0, No Iterations 0
diagonal:  Solving for Uy, Initial residual = 0, Final residual = 0, No Iterations 0
GAMG:  Solving for p, Initial residual = 0.085232, Final residual = 4.46211e-07, No Iterations 18
Time = 0.00043s

diagonal:  Solving for Ux, Initial residual = 0, Final residual = 0, No Iterations 0
diagonal:  Solving for Uy, Initial residual = 0, Final residual = 0, No Iterations 0
GAMG:  Solving for p, Initial residual = 0.0568558, Final residual = 7.22913e-07, No Iterations 20
Time = 0.00044s

diagonal:  Solving for Ux, Initial residual = 0, Final residual = 0, No Iterations 0
diagonal:  Solving for Uy, Initial residual = 0, Final residual = 0, No Iterations 0
GAMG:  Solving for p, Initial residual = 0.0640046, Final residual = 5.22696e-07, No Iterations 20
Time = 0.00045s

diagonal:  Solving for Ux, Initial residual = 0, Final residual = 0, No Iterations 0
diagonal:  Solving for Uy, Initial residual = 0, Final residual = 0, No Iterations 0
GAMG:  Solving for p, Initial residual = 0.0716623, Final residual = 2.91476e-07, No Iterations 22
Time = 0.00046s

diagonal:  Solving for Ux, Initial residual = 0, Final residual = 0, No Iterations 0
diagonal:  Solving for Uy, Initial residual = 0, Final residual = 0, No Iterations 0
GAMG:  Solving for p, Initial residual = 0.0531017, Final residual = 5.40113e-07, No Iterations 20
Time = 0.00047s

diagonal:  Solving for Ux, Initial residual = 0, Final residual = 0, No Iterations 0
diagonal:  Solving for Uy, Initial residual = 0, Final residual = 0, No Iterations 0
GAMG:  Solving for p, Initial residual = 0.14674, Final residual = 5.34885e-07, No Iterations 22
Time = 0.00048s

diagonal:  Solving for Ux, Initial residual = 0, Final residual = 0, No Iterations 0
diagonal:  Solving for Uy, Initial residual = 0, Final residual = 0, No Iterations 0
GAMG:  Solving for p, Initial residual = 0.0727182, Final residual = 5.55694e-07, No Iterations 19
Time = 0.00049s

diagonal:  Solving for Ux, Initial residual = 0, Final residual = 0, No Iterations 0
diagonal:  Solving for Uy, Initial residual = 0, Final residual = 0, No Iterations 0
GAMG:  Solving for p, Initial residual = 0.0716844, Final residual = 5.28665e-07, No Iterations 20
Time = 0.0005s

diagonal:  Solving for Ux, Initial residual = 0, Final residual = 0, No Iterations 0
diagonal:  Solving for Uy, Initial residual = 0, Final residual = 0, No Iterations 0
GAMG:  Solving for p, Initial residual = 0.0734181, Final residual = 7.95135e-07, No Iterations 17
Time = 0.00051s

diagonal:  Solving for Ux, Initial residual = 0, Final residual = 0, No Iterations 0
diagonal:  Solving for Uy, Initial residual = 0, Final residual = 0, No Iterations 0
GAMG:  Solving for p, Initial residual = 0.0390682, Final residual = 5.93927e-07, No Iterations 19
Time = 0.00052s

diagonal:  Solving for Ux, Initial residual = 0, Final residual = 0, No Iterations 0
diagonal:  Solving for Uy, Initial residual = 0, Final residual = 0, No Iterations 0
GAMG:  Solving for p, Initial residual = 0.0451528, Final residual = 3.94936e-07, No Iterations 22
Time = 0.00053s

diagonal:  Solving for Ux, Initial residual = 0, Final residual = 0, No Iterations 0
diagonal:  Solving for Uy, Initial residual = 0, Final residual = 0, No Iterations 0
GAMG:  Solving for p, Initial residual = 0.102971, Final residual = 3.7849e-07, No Iterations 22
Time = 0.00054s

diagonal:  Solving for Ux, Initial residual = 0, Final residual = 0, No Iterations 0
diagonal:  Solving for Uy, Initial residual = 0, Final residual = 0, No Iterations 0
GAMG:  Solving for p, Initial residual = 0.0888197, Final residual = 3.06079e-07, No Iterations 22
Time = 0.00055s

diagonal:  Solving for Ux, Initial residual = 0, Final residual = 0, No Iterations 0
diagonal:  Solving for Uy, Initial residual = 0, Final residual = 0, No Iterations 0
GAMG:  Solving for p, Initial residual = 0.139023, Final residual = 2.90178e-07, No Iterations 22
Time = 0.00056s

diagonal:  Solving for Ux, Initial residual = 0, Final residual = 0, No Iterations 0
diagonal:  Solving for Uy, Initial residual = 0, Final residual = 0, No Iterations 0
GAMG:  Solving for p, Initial residual = 0.0923963, Final residual = 5.96048e-07, No Iterations 16
Time = 0.00057s

diagonal:  Solving for Ux, Initial residual = 0, Final residual = 0, No Iterations 0
diagonal:  Solving for Uy, Initial residual = 0, Final residual = 0, No Iterations 0
GAMG:  Solving for p, Initial residual = 0.0624966, Final residual = 3.61e-07, No Iterations 22
Time = 0.00058s

diagonal:  Solving for Ux, Initial residual = 0, Final residual = 0, No Iterations 0
diagonal:  Solving for Uy, Initial residual = 0, Final residual = 0, No Iterations 0
GAMG:  Solving for p, Initial residual = 0.0644475, Final residual = 9.32919e-07, No Iterations 21
Time = 0.00059s

diagonal:  Solving for Ux, Initial residual = 0, Final residual = 0, No Iterations 0
diagonal:  Solving for Uy, Initial residual = 0, Final residual = 0, No Iterations 0
GAMG:  Solving for p, Initial residual = 0.034239, Final residual = 8.57054e-07, No Iterations 20
Time = 0.0006s

diagonal:  Solving for Ux, Initial residual = 0, Final residual = 0, No Iterations 0
diagonal:  Solving for Uy, Initial residual = 0, Final residual = 0, No Iterations 0
GAMG:  Solving for p, Initial residual = 0.125941, Final residual = 5.09546e-07, No Iterations 22
Time = 0.00061s

diagonal:  Solving for Ux, Initial residual = 0, Final residual = 0, No Iterations 0
diagonal:  Solving for Uy, Initial residual = 0, Final residual = 0, No Iterations 0
GAMG:  Solving for p, Initial residual = 0.0652304, Final residual = 9.9117e-07, No Iterations 18
Time = 0.00062s

diagonal:  Solving for Ux, Initial residual = 0, Final residual = 0, No Iterations 0
diagonal:  Solving for Uy, Initial residual = 0, Final residual = 0, No Iterations 0
GAMG:  Solving for p, Initial residual = 0.0477342, Final residual = 8.4703e-07, No Iterations 20
Time = 0.00063s

diagonal:  Solving for Ux, Initial residual = 0, Final residual = 0, No Iterations 0
diagonal:  Solving for Uy, Initial residual = 0, Final residual = 0, No Iterations 0
GAMG:  Solving for p, Initial residual = 0.0799706, Final residual = 4.59789e-07, No Iterations 17
Time = 0.00064s

diagonal:  Solving for Ux, Initial residual = 0, Final residual = 0, No Iterations 0
diagonal:  Solving for Uy, Initial residual = 0, Final residual = 0, No Iterations 0
GAMG:  Solving for p, Initial residual = 0.0830321, Final residual = 3.61973e-07, No Iterations 22
Time = 0.00065s

diagonal:  Solving for Ux, Initial residual = 0, Final residual = 0, No Iterations 0
diagonal:  Solving for Uy, Initial residual = 0, Final residual = 0, No Iterations 0
GAMG:  Solving for p, Initial residual = 0.0573469, Final residual = 3.66175e-07, No Iterations 22
Time = 0.00066s

diagonal:  Solving for Ux, Initial residual = 0, Final residual = 0, No Iterations 0
diagonal:  Solving for Uy, Initial residual = 0, Final residual = 0, No Iterations 0
GAMG:  Solving for p, Initial residual = 0.0894788, Final residual = 9.19616e-07, No Iterations 21
Time = 0.00067s

diagonal:  Solving for Ux, Initial residual = 0, Final residual = 0, No Iterations 0
diagonal:  Solving for Uy, Initial residual = 0, Final residual = 0, No Iterations 0
GAMG:  Solving for p, Initial residual = 0.120511, Final residual = 6.07818e-07, No Iterations 21
Time = 0.00068s

diagonal:  Solving for Ux, Initial residual = 0, Final residual = 0, No Iterations 0
diagonal:  Solving for Uy, Initial residual = 0, Final residual = 0, No Iterations 0
GAMG:  Solving for p, Initial residual = 0.0527165, Final residual = 6.45645e-07, No Iterations 20
Time = 0.00069s

diagonal:  Solving for Ux, Initial residual = 0, Final residual = 0, No Iterations 0
diagonal:  Solving for Uy, Initial residual = 0, Final residual = 0, No Iterations 0
GAMG:  Solving for p, Initial residual = 0.0417344, Final residual = 3.72095e-07, No Iterations 22
Time = 0.0007s

diagonal:  Solving for Ux, Initial residual = 0, Final residual = 0, No Iterations 0
diagonal:  Solving for Uy, Initial residual = 0, Final residual = 0, No Iterations 0
GAMG:  Solving for p, Initial residual = 0.0876261, Final residual = 8.96381e-07, No Iterations 20
Time = 0.00071s

diagonal:  Solving for Ux, Initial residual = 0, Final residual = 0, No Iterations 0
diagonal:  Solving for Uy, Initial residual = 0, Final residual = 0, No Iterations 0
GAMG:  Solving for p, Initial residual = 0.106584, Final residual = 4.78361e-07, No Iterations 22
Time = 0.00072s

diagonal:  Solving for Ux, Initial residual = 0, Final residual = 0, No Iterations 0
diagonal:  Solving for Uy, Initial residual = 0, Final residual = 0, No Iterations 0
GAMG:  Solving for p, Initial residual = 0.100875, Final residual = 3.95621e-07, No Iterations 22
Time = 0.00073s

diagonal:  Solving for Ux, Initial residual = 0, Final residual = 0, No Iterations 0
diagonal:  Solving for Uy, Initial residual = 0, Final residual = 0, No Iterations 0
GAMG:  Solving for p, Initial residual = 0.13811, Final residual = 5.35133e-07, No Iterations 22
Time = 0.00074s

diagonal:  Solving for Ux, Initial residual = 0, Final residual = 0, No Iterations 0
diagonal:  Solving for Uy, Initial residual = 0, Final residual = 0, No Iterations 0
GAMG:  Solving for p, Initial residual = 0.0743052, Final residual = 8.4228e-07, No Iterations 20
Time = 0.00075s

diagonal:  Solving for Ux, Initial residual = 0, Final residual = 0, No Iterations 0
diagonal:  Solving for Uy, Initial residual = 0, Final residual = 0, No Iterations 0
GAMG:  Solving for p, Initial residual = 0.0977231, Final residual = 4.47759e-07, No Iterations 18
Time = 0.00076s

diagonal:  Solving for Ux, Initial residual = 0, Final residual = 0, No Iterations 0
diagonal:  Solving for Uy, Initial residual = 0, Final residual = 0, No Iterations 0
GAMG:  Solving for p, Initial residual = 0.0612286, Final residual = 9.12138e-07, No Iterations 20
Time = 0.00077s

diagonal:  Solving for Ux, Initial residual = 0, Final residual = 0, No Iterations 0
diagonal:  Solving for Uy, Initial residual = 0, Final residual = 0, No Iterations 0
GAMG:  Solving for p, Initial residual = 0.0488044, Final residual = 9.26914e-07, No Iterations 18
Time = 0.00078s

diagonal:  Solving for Ux, Initial residual = 0, Final residual = 0, No Iterations 0
diagonal:  Solving for Uy, Initial residual = 0, Final residual = 0, No Iterations 0
GAMG:  Solving for p, Initial residual = 0.0353073, Final residual = 8.2268e-07, No Iterations 20
Time = 0.00079s

diagonal:  Solving for Ux, Initial residual = 0, Final residual = 0, No Iterations 0
diagonal:  Solving for Uy, Initial residual = 0, Final residual = 0, No Iterations 0
GAMG:  Solving for p, Initial residual = 0.0994646, Final residual = 3.36194e-07, No Iterations 22
Time = 0.0008s

diagonal:  Solving for Ux, Initial residual = 0, Final residual = 0, No Iterations 0
diagonal:  Solving for Uy, Initial residual = 0, Final residual = 0, No Iterations 0
GAMG:  Solving for p, Initial residual = 0.0468136, Final residual = 6.41799e-07, No Iterations 20
Time = 0.00081s

diagonal:  Solving for Ux, Initial residual = 0, Final residual = 0, No Iterations 0
diagonal:  Solving for Uy, Initial residual = 0, Final residual = 0, No Iterations 0
GAMG:  Solving for p, Initial residual = 0.0956533, Final residual = 7.17363e-07, No Iterations 22
Time = 0.00082s

diagonal:  Solving for Ux, Initial residual = 0, Final residual = 0, No Iterations 0
diagonal:  Solving for Uy, Initial residual = 0, Final residual = 0, No Iterations 0
GAMG:  Solving for p, Initial residual = 0.0586193, Final residual = 3.59151e-07, No Iterations 22
Time = 0.00083s

diagonal:  Solving for Ux, Initial residual = 0, Final residual = 0, No Iterations 0
diagonal:  Solving for Uy, Initial residual = 0, Final residual = 0, No Iterations 0
GAMG:  Solving for p, Initial residual = 0.149006, Final residual = 4.96084e-07, No Iterations 22
Time = 0.00084s

diagonal:  Solving for Ux, Initial residual = 0, Final residual = 0, No Iterations 0
diagonal:  Solving for Uy, Initial residual = 0, Final residual = 0, No Iterations 0
GAMG:  Solving for p, Initial residual = 0.118642, Final residual = 3.49358e-07, No Iterations 22
Time = 0.00085s

diagonal:  Solving for Ux, Initial residual = 0, Final residual = 0, No Iterations 0
diagonal:  Solving for Uy, Initial residual = 0, Final residual = 0, No Iterations 0
GAMG:  Solving for p, Initial residual = 0.133508, Final residual = 9.1052e-07, No Iterations 22
Time = 0.00086s

diagonal:  Solving for Ux, Initial residual = 0, Final residual = 0, No Iterations 0
diagonal:  Solving for Uy, Initial residual = 0, Final residual = 0, No Iterations 0
GAMG:  Solving for p, Initial residual = 0.0414567, Final residual = 7.50407e-07, No Iterations 15
Time = 0.00087s

diagonal:  Solving for Ux, Initial residual = 0, Final residual = 0, No Iterations 0
diagonal:  Solving for Uy, Initial residual = 0, Final residual = 0, No Iterations 0
GAMG:  Solving for p, Initial residual = 0.0428544, Final residual = 7.80142e-07, No Iterations 17
Time = 0.00088s

diagonal:  Solving for Ux, Initial residual = 0, Final residual = 0, No Iterations 0
diagonal:  Solving for Uy, Initial residual = 0, Final residual = 0, No Iterations 0
GAMG:  Solving for p, Initial residual = 0.0449786, Final residual = 3.39727e-07, No Iterations 22
Time = 0.00089s

diagonal:  Solving for Ux, Initial residual = 0, Final residual = 0, No Iterations 0
diagonal:  Solving for Uy, Initial residual = 0, Final residual = 0, No Iterations 0
GAMG:  Solving for p, Initial residual = 0.0774101, Final residual = 9.15238e-07, No Iterations 20
Time = 0.0009s

diagonal:  Solving for Ux, Initial residual = 0, Final residual = 0, No Iterations 0
diagonal:  Solving for Uy, Initial residual = 0, Final residual = 0, No Iterations 0
GAMG:  Solving for p, Initial residual = 0.108513, Final residual = 6.20165e-07, No Iterations 16
Time = 0.00091s

diagonal:  Solving for Ux, Initial residual = 0, Final residual = 0, No Iterations 0
diagonal:  Solving for Uy, Initial residual = 0, Final residual = 0, No Iterations 0
GAMG:  Solving for p, Initial residual = 0.0532112, Final residual = 9.19773e-07, No Iterations 21
Time = 0.00092s

diagonal:  Solving for Ux, Initial residual = 0, Final residual = 0, No Iterations 0
diagonal:  Solving for Uy, Initial residual = 0, Final residual = 0, No Iterations 0
GAMG:  Solving for p, Initial residual = 0.0560113, Final residual = 9.65581e-07, No Iterations 15
Time = 0.00093s

diagonal:  Solving for Ux, Initial residual = 0, Final residual = 0, No Iterations 0
diagonal:  Solving for Uy, Initial residual = 0, Final residual = 0, No Iterations 0
GAMG:  Solving for p, Initial residual = 0.0512337, Final residual = 6.88116e-07, No Iterations 19
Time = 0.00094s

diagonal:  Solving for Ux, Initial residual = 0, Final residual = 0, No Iterations 0
diagonal:  Solving for Uy, Initial residual = 0, Final residual = 0, No Iterations 0
GAMG:  Solving for p, Initial residual = 0.104104, Final residual = 9.48275e-07, No Iterations 22
Time = 0.00095s

diagonal:  Solving for Ux, Initial residual = 0, Final residual = 0, No Iterations 0
diagonal:  Solving for Uy, Initial residual = 0, Final residual = 0, No Iterations 0
GAMG:  Solving for p, Initial residual = 0.0655793, Final residual = 8.85896e-07, No Iterations 20
Time = 0.00096s

diagonal:  Solving for Ux, Initial residual = 0, Final residual = 0, No Iterations 0
diagonal:  Solving for Uy, Initial residual = 0, Final residual = 0, No Iterations 0
GAMG:  Solving for p, Initial residual = 0.151559, Final residual = 8.74373e-07, No Iterations 21
Time = 0.00097s

diagonal:  Solving for Ux, Initial residual = 0, Final residual = 0, No Iterations 0
diagonal:  Solving for Uy, Initial residual = 0, Final residual = 0, No Iterations 0
GAMG:  Solving for p, Initial residual = 0.0883545, Final residual = 4.52953e-07, No Iterations 22
Time = 0.00098s

diagonal:  Solving for Ux, Initial residual = 0, Final residual = 0, No Iterations 0
diagonal:  Solving for Uy, Initial residual = 0, Final residual = 0, No Iterations 0
GAMG:  Solving for p, Initial residual = 0.114612, Final residual = 7.92428e-07, No Iterations 20
Time = 0.00099s

diagonal:  Solving for Ux, Initial residual = 0, Final residual = 0, No Iterations 0
diagonal:  Solving for Uy, Initial residual = 0, Final residual = 0, No Iterations 0
GAMG:  Solving for p, Initial residual = 0.115342, Final residual = 8.13665e-07, No Iterations 16
Time = 0.001s

diagonal:  Solving for Ux, Initial residual = 0, Final residual = 0, No Iterations 0
diagonal:  Solving for Uy, Initial residual = 0, Final residual = 0, No Iterations 0
GAMG:  Solving for p, Initial residual = 0.0714951, Final residual = 5.4401e-07, No Iterations 22
Time = 0.00101s

diagonal:  Solving for Ux, Initial residual = 0, Final residual = 0, No Iterations 0
diagonal:  Solving for Uy, Initial residual = 0, Final residual = 0, No Iterations 0
GAMG:  Solving for p, Initial residual = 0.0675622, Final residual = 5.59766e-07, No Iterations 18
Time = 0.00102s

diagonal:  Solving for Ux, Initial residual = 0, Final residual = 0, No Iterations 0
diagonal:  Solving for Uy, Initial residual = 0, Final residual = 0, No Iterations 0
GAMG:  Solving for p, Initial residual = 0.0401471, Final residual = 8.8139e-07, No Iterations 14
Time = 0.00103s

diagonal:  Solving for Ux, Initial residual = 0, Final residual = 0, No Iterations 0
diagonal:  Solving for Uy, Initial residual = 0, Final residual = 0, No Iterations 0
GAMG:  Solving for p, Initial residual = 0.0427907, Final residual = 3.67788e-07, No Iterations 22
Time = 0.00104s

diagonal:  Solving for Ux, Initial residual = 0, Final residual = 0, No Iterations 0
diagonal:  Solving for Uy, Initial residual = 0, Final residual = 0, No Iterations 0
GAMG:  Solving for p, Initial residual = 0.0902764, Final residual = 3.78355e-07, No Iterations 22
Time = 0.00105s

diagonal:  Solving for Ux, Initial residual = 0, Final residual = 0, No Iterations 0
diagonal:  Solving for Uy, Initial residual = 0, Final residual = 0, No Iterations 0
GAMG:  Solving for p, Initial residual = 0.0862956, Final residual = 9.67078e-07, No Iterations 21
Time = 0.00106s

diagonal:  Solving for Ux, Initial residual = 0, Final residual = 0, No Iterations 0
diagonal:  Solving for Uy, Initial residual = 0, Final residual = 0, No Iterations 0
GAMG:  Solving for p, Initial residual = 0.102587, Final residual = 9.90306e-07, No Iterations 19
Time = 0.00107s

diagonal:  Solving for Ux, Initial residual = 0, Final residual = 0, No Iterations 0
diagonal:  Solving for Uy, Initial residual = 0, Final residual = 0, No Iterations 0
GAMG:  Solving for p, Initial residual = 0.0464724, Final residual = 7.25744e-07, No Iterations 20
Time = 0.00108s

diagonal:  Solving for Ux, Initial residual = 0, Final residual = 0, No Iterations 0
diagonal:  Solving for Uy, Initial residual = 0, Final residual = 0, No Iterations 0
GAMG:  Solving for p, Initial residual = 0.0825497, Final residual = 3.82404e-07, No Iterations 22
Time = 0.00109s

diagonal:  Solving for Ux, Initial residual = 0, Final residual = 0, No Iterations 0
diagonal:  Solving for Uy, Initial residual = 0, Final residual = 0, No Iterations 0
GAMG:  Solving for p, Initial residual = 0.0604171, Final residual = 4.32381e-07, No Iterations 22
Time = 0.0011s

diagonal:  Solving for Ux, Initial residual = 0, Final residual = 0, No Iterations 0
diagonal:  Solving for Uy, Initial residual = 0, Final residual = 0, No Iterations 0
GAMG:  Solving for p, Initial residual = 0.102218, Final residual = 4.6973e-07, No Iterations 22
Time = 0.00111s

diagonal:  Solving for Ux, Initial residual = 0, Final residual = 0, No Iterations 0
diagonal:  Solving for Uy, Initial residual = 0, Final residual = 0, No Iterations 0
GAMG:  Solving for p, Initial residual = 0.0969491, Final residual = 9.74721e-07, No Iterations 21
Time = 0.00112s

diagonal:  Solving for Ux, Initial residual = 0, Final residual = 0, No Iterations 0
diagonal:  Solving for Uy, Initial residual = 0, Final residual = 0, No Iterations 0
GAMG:  Solving for p, Initial residual = 0.0978032, Final residual = 9.09984e-07, No Iterations 18
Time = 0.00113s

diagonal:  Solving for Ux, Initial residual = 0, Final residual = 0, No Iterations 0
diagonal:  Solving for Uy, Initial residual = 0, Final residual = 0, No Iterations 0
GAMG:  Solving for p, Initial residual = 0.0333277, Final residual = 8.58525e-07, No Iterations 20
Time = 0.00114s

diagonal:  Solving for Ux, Initial residual = 0, Final residual = 0, No Iterations 0
diagonal:  Solving for Uy, Initial residual = 0, Final residual = 0, No Iterations 0
GAMG:  Solving for p, Initial residual = 0.0377447, Final residual = 3.11661e-07, No Iterations 22
Time = 0.00115s

diagonal:  Solving for Ux, Initial residual = 0, Final residual = 0, No Iterations 0
diagonal:  Solving for Uy, Initial residual = 0, Final residual = 0, No Iterations 0
GAMG:  Solving for p, Initial residual = 0.119071, Final residual = 6.48751e-07, No Iterations 22
Time = 0.00116s

diagonal:  Solving for Ux, Initial residual = 0, Final residual = 0, No Iterations 0
diagonal:  Solving for Uy, Initial residual = 0, Final residual = 0, No Iterations 0
GAMG:  Solving for p, Initial residual = 0.0529993, Final residual = 3.06134e-07, No Iterations 22
Time = 0.00117s

diagonal:  Solving for Ux, Initial residual = 0, Final residual = 0, No Iterations 0
diagonal:  Solving for Uy, Initial residual = 0, Final residual = 0, No Iterations 0
GAMG:  Solving for p, Initial residual = 0.0970436, Final residual = 9.74456e-07, No Iterations 21
Time = 0.00118s

diagonal:  Solving for Ux, Initial residual = 0, Final residual = 0, No Iterations 0
diagonal:  Solving for Uy, Initial residual = 0, Final residual = 0, No Iterations 0
GAMG:  Solving for p, Initial residual = 0.0837637, Final residual = 9.04606e-07, No Iterations 21
Time = 0.00119s

diagonal:  Solving for Ux, Initial residual = 0, Final residual = 0, No Iterations 0
diagonal:  Solving for Uy, Initial residual = 0, Final residual = 0, No Iterations 0
GAMG:  Solving for p, Initial residual = 0.126948, Final residual = 3.97689e-07, No Iterations 18
Time = 0.0012s

diagonal:  Solving for Ux, Initial residual = 0, Final residual = 0, No Iterations 0
diagonal:  Solving for Uy, Initial residual = 0, Final residual = 0, No Iterations 0
GAMG:  Solving for p, Initial residual = 0.0784139, Final residual = 3.81956e-07, No Iterations 17
Time = 0.00121s

diagonal:  Solving for Ux, Initial residual = 0, Final residual = 0, No Iterations 0
diagonal:  Solving for Uy, Initial residual = 0, Final residual = 0, No Iterations 0
GAMG:  Solving for p, Initial residual = 0.0630973, Final residual = 7.77225e-07, No Iterations 16
Time = 0.00122s

diagonal:  Solving for Ux, Initial residual = 0, Final residual = 0, No Iterations 0
diagonal:  Solving for Uy, Initial residual = 0, Final residual = 0, No Iterations 0
GAMG:  Solving for p, Initial residual = 0.0569723, Final residual = 7.98371e-07, No Iterations 19
Time = 0.00123s

diagonal:  Solving for Ux, Initial residual = 0, Final residual = 0, No Iterations 0
diagonal:  Solving for Uy, Initial residual = 0, Final residual = 0, No Iterations 0
GAMG:  Solving for p, Initial residual = 0.0475196, Final residual = 8.47714e-07, No Iterations 20
Time = 0.00124s

diagonal:  Solving for Ux, Initial residual = 0, Final residual = 0, No Iterations 0
diagonal:  Solving for Uy, Initial residual = 0, Final residual = 0, No Iterations 0
GAMG:  Solving for p, Initial residual = 0.0866743, Final residual = 6.2665e-07, No Iterations 21
Time = 0.00125s

diagonal:  Solving for Ux, Initial residual = 0, Final residual = 0, No Iterations 0
diagonal:  Solving for Uy, Initial residual = 0, Final residual = 0, No Iterations 0
GAMG:  Solving for p, Initial residual = 0.0747623, Final residual = 9.91074e-07, No Iterations 15
Time = 0.00126s

diagonal:  Solving for Ux, Initial residual = 0, Final residual = 0, No Iterations 0
diagonal:  Solving for Uy, Initial residual = 0, Final residual = 0, No Iterations 0
GAMG:  Solving for p, Initial residual = 0.0676766, Final residual = 9.46322e-07, No Iterations 17
Time = 0.00127s

diagonal:  Solving for Ux, Initial residual = 0, Final residual = 0, No Iterations 0
diagonal:  Solving for Uy, Initial residual = 0, Final residual = 0, No Iterations 0
GAMG:  Solving for p, Initial residual = 0.0422923, Final residual = 9.04181e-07, No Iterations 20
Time = 0.00128s

diagonal:  Solving for Ux, Initial residual = 0, Final residual = 0, No Iterations 0
diagonal:  Solving for Uy, Initial residual = 0, Final residual = 0, No Iterations 0
GAMG:  Solving for p, Initial residual = 0.0744722, Final residual = 3.08615e-07, No Iterations 22
Time = 0.00129s

diagonal:  Solving for Ux, Initial residual = 0, Final residual = 0, No Iterations 0
diagonal:  Solving for Uy, Initial residual = 0, Final residual = 0, No Iterations 0
GAMG:  Solving for p, Initial residual = 0.0947746, Final residual = 3.92047e-07, No Iterations 22
Time = 0.0013s

diagonal:  Solving for Ux, Initial residual = 0, Final residual = 0, No Iterations 0
diagonal:  Solving for Uy, Initial residual = 0, Final residual = 0, No Iterations 0
GAMG:  Solving for p, Initial residual = 0.0667072, Final residual = 5.51865e-07, No Iterations 16
Time = 0.00131s

diagonal:  Solving for Ux, Initial residual = 0, Final residual = 0, No Iterations 0
diagonal:  Solving for Uy, Initial residual = 0, Final residual = 0, No Iterations 0
GAMG:  Solving for p, Initial residual = 0.0578969, Final residual = 5.36909e-07, No Iterations 22
Time = 0.00132s

diagonal:  Solving for Ux, Initial residual = 0, Final residual = 0, No Iterations 0
diagonal:  Solving for Uy, Initial residual = 0, Final residual = 0, No Iterations 0
GAMG:  Solving for p, Initial residual = 0.0753297, Final residual = 3.63743e-07, No Iterations 22
Time = 0.00133s

diagonal:  Solving for Ux, Initial residual = 0, Final residual = 0, No Iterations 0
diagonal:  Solving for Uy, Initial residual = 0, Final residual = 0, No Iterations 0
GAMG:  Solving for p, Initial residual = 0.0990391, Final residual = 3.22519e-07, No Iterations 22
Time = 0.00134s

diagonal:  Solving for Ux, Initial residual = 0, Final residual = 0, No Iterations 0
diagonal:  Solving for Uy, Initial residual = 0, Final residual = 0, No Iterations 0
GAMG:  Solving for p, Initial residual = 0.121039, Final residual = 5.23866e-07, No Iterations 16
Time = 0.00135s

diagonal:  Solving for Ux, Initial residual = 0, Final residual = 0, No Iterations 0
diagonal:  Solving for Uy, Initial residual = 0, Final residual = 0, No Iterations 0
GAMG:  Solving for p, Initial residual = 0.0591106, Final residual = 9.23058e-07, No Iterations 15
Time = 0.00136s

diagonal:  Solving for Ux, Initial residual = 0, Final residual = 0, No Iterations 0
diagonal:  Solving for Uy, Initial residual = 0, Final residual = 0, No Iterations 0
GAMG:  Solving for p, Initial residual = 0.0399134, Final residual = 3.82788e-07, No Iterations 22
Time = 0.00137s

diagonal:  Solving for Ux, Initial residual = 0, Final residual = 0, No Iterations 0
diagonal:  Solving for Uy, Initial residual = 0, Final residual = 0, No Iterations 0
GAMG:  Solving for p, Initial residual = 0.0728004, Final residual = 8.75624e-07, No Iterations 21
Time = 0.00138s

diagonal:  Solving for Ux, Initial residual = 0, Final residual = 0, No Iterations 0
diagonal:  Solving for Uy, Initial residual = 0, Final residual = 0, No Iterations 0
GAMG:  Solving for p, Initial residual = 0.0659771, Final residual = 9.10152e-07, No Iterations 21
Time = 0.00139s

diagonal:  Solving for Ux, Initial residual = 0, Final residual = 0, No Iterations 0
diagonal:  Solving for Uy, Initial residual = 0, Final residual = 0, No Iterations 0
GAMG:  Solving for p, Initial residual = 0.106476, Final residual = 4.3315e-07, No Iterations 22
Time = 0.0014s

diagonal:  Solving for Ux, Initial residual = 0, Final residual = 0, No Iterations 0
diagonal:  Solving for Uy, Initial residual = 0, Final residual = 0, No Iterations 0
GAMG:  Solving for p, Initial residual = 0.112885, Final residual = 5.35966e-07, No Iterations 22
Time = 0.00141s

diagonal:  Solving for Ux, Initial residual = 0, Final residual = 0, No Iterations 0
diagonal:  Solving for Uy, Initial residual = 0, Final residual = 0, No Iterations 0
GAMG:  Solving for p, Initial residual = 0.0853328, Final residual = 3.07582e-07, No Iterations 22
Time = 0.00142s

diagonal:  Solving for Ux, Initial residual = 0, Final residual = 0, No Iterations 0
diagonal:  Solving for Uy, Initial residual = 0, Final residual = 0, No Iterations 0
GAMG:  Solving for p, Initial residual = 0.149207, Final residual = 4.58855e-07, No Iterations 22
Time = 0.00143s

diagonal:  Solving for Ux, Initial residual = 0, Final residual = 0, No Iterations 0
diagonal:  Solving for Uy, Initial residual = 0, Final residual = 0, No Iterations 0
GAMG:  Solving for p, Initial residual = 0.0647676, Final residual = 6.78194e-07, No Iterations 19
Time = 0.00144s

diagonal:  Solving for Ux, Initial residual = 0, Final residual = 0, No Iterations 0
diagonal:  Solving for Uy, Initial residual = 0, Final residual = 0, No Iterations 0
GAMG:  Solving for p, Initial residual = 0.0705815, Final residual = 4.42684e-07, No Iterations 20
Time = 0.00145s

diagonal:  Solving for Ux, Initial residual = 0, Final residual = 0, No Iterations 0
diagonal:  Solving for Uy, Initial residual = 0, Final residual = 0, No Iterations 0
GAMG:  Solving for p, Initial residual = 0.0913593, Final residual = 2.86329e-07, No Iterations 22
Time = 0.00146s

diagonal:  Solving for Ux, Initial residual = 0, Final residual = 0, No Iterations 0
diagonal:  Solving for Uy, Initial residual = 0, Final residual = 0, No Iterations 0
GAMG:  Solving for p, Initial residual = 0.0597835, Final residual = 3.57935e-07, No Iterations 22
Time = 0.00147s

diagonal:  Solving for Ux, Initial residual = 0, Final residual = 0, No Iterations 0
diagonal:  Solving for Uy, Initial residual = 0, Final residual = 0, No Iterations 0
GAMG:  Solving for p, Initial residual = 0.113806, Final residual = 7.12462e-07, No Iterations 22
Time = 0.00148s

diagonal:  Solving for Ux, Initial residual = 0, Final residual = 0, No Iterations 0
diagonal:  Solving for Uy, Initial residual = 0, Final residual = 0, No Iterations 0
GAMG:  Solving for p, Initial residual = 0.084499, Final residual = 3.81057e-07, No Iterations 22
Time = 0.00149s

diagonal:  Solving for Ux, Initial residual = 0, Final residual = 0, No Iterations 0
diagonal:  Solving for Uy, Initial residual = 0, Final residual = 0, No Iterations 0
GAMG:  Solving for p, Initial residual = 0.137284, Final residual = 3.15064e-07, No Iterations 22
Time = 0.0015s

diagonal:  Solving for Ux, Initial residual = 0, Final residual = 0, No Iterations 0
diagonal:  Solving for Uy, Initial residual = 0, Final residual = 0, No Iterations 0
GAMG:  Solving for p, Initial residual = 0.0729601, Final residual = 5.72131e-07, No Iterations 17
Time = 0.00151s

diagonal:  Solving for Ux, Initial residual = 0, Final residual = 0, No Iterations 0
diagonal:  Solving for Uy, Initial residual = 0, Final residual = 0, No Iterations 0
GAMG:  Solving for p, Initial residual = 0.0669859, Final residual = 7.39365e-07, No Iterations 22
Time = 0.00152s

diagonal:  Solving for Ux, Initial residual = 0, Final residual = 0, No Iterations 0
diagonal:  Solving for Uy, Initial residual = 0, Final residual = 0, No Iterations 0
GAMG:  Solving for p, Initial residual = 0.0708171, Final residual = 8.88844e-07, No Iterations 21
Time = 0.00153s

diagonal:  Solving for Ux, Initial residual = 0, Final residual = 0, No Iterations 0
diagonal:  Solving for Uy, Initial residual = 0, Final residual = 0, No Iterations 0
GAMG:  Solving for p, Initial residual = 0.121637, Final residual = 3.52996e-07, No Iterations 22
Time = 0.00154s

diagonal:  Solving for Ux, Initial residual = 0, Final residual = 0, No Iterations 0
diagonal:  Solving for Uy, Initial residual = 0, Final residual = 0, No Iterations 0
GAMG:  Solving for p, Initial residual = 0.0701146, Final residual = 4.52744e-07, No Iterations 22
Time = 0.00155s

diagonal:  Solving for Ux, Initial residual = 0, Final residual = 0, No Iterations 0
diagonal:  Solving for Uy, Initial residual = 0, Final residual = 0, No Iterations 0
GAMG:  Solving for p, Initial residual = 0.108493, Final residual = 9.08317e-07, No Iterations 15
Time = 0.00156s

diagonal:  Solving for Ux, Initial residual = 0, Final residual = 0, No Iterations 0
diagonal:  Solving for Uy, Initial residual = 0, Final residual = 0, No Iterations 0
GAMG:  Solving for p, Initial residual = 0.0629499, Final residual = 5.34878e-07, No Iterations 20
Time = 0.00157s

diagonal:  Solving for Ux, Initial residual = 0, Final residual = 0, No Iterations 0
diagonal:  Solving for Uy, Initial residual = 0, Final residual = 0, No Iterations 0
GAMG:  Solving for p, Initial residual = 0.0421066, Final residual = 9.39311e-07, No Iterations 21
Time = 0.00158s

diagonal:  Solving for Ux, Initial residual = 0, Final residual = 0, No Iterations 0
diagonal:  Solving for Uy, Initial residual = 0, Final residual = 0, No Iterations 0
GAMG:  Solving for p, Initial residual = 0.129614, Final residual = 9.20391e-07, No Iterations 15
Time = 0.00159s

diagonal:  Solving for Ux, Initial residual = 0, Final residual = 0, No Iterations 0
diagonal:  Solving for Uy, Initial residual = 0, Final residual = 0, No Iterations 0
GAMG:  Solving for p, Initial residual = 0.0763608, Final residual = 3.80681e-07, No Iterations 22
Time = 0.0016s

diagonal:  Solving for Ux, Initial residual = 0, Final residual = 0, No Iterations 0
diagonal:  Solving for Uy, Initial residual = 0, Final residual = 0, No Iterations 0
GAMG:  Solving for p, Initial residual = 0.0670702, Final residual = 4.87724e-07, No Iterations 22
Time = 0.00161s

diagonal:  Solving for Ux, Initial residual = 0, Final residual = 0, No Iterations 0
diagonal:  Solving for Uy, Initial residual = 0, Final residual = 0, No Iterations 0
GAMG:  Solving for p, Initial residual = 0.0986193, Final residual = 7.89764e-07, No Iterations 20
Time = 0.00162s

diagonal:  Solving for Ux, Initial residual = 0, Final residual = 0, No Iterations 0
diagonal:  Solving for Uy, Initial residual = 0, Final residual = 0, No Iterations 0
GAMG:  Solving for p, Initial residual = 0.111654, Final residual = 9.22645e-07, No Iterations 16
Time = 0.00163s

diagonal:  Solving for Ux, Initial residual = 0, Final residual = 0, No Iterations 0
diagonal:  Solving for Uy, Initial residual = 0, Final residual = 0, No Iterations 0
GAMG:  Solving for p, Initial residual = 0.0458129, Final residual = 6.06181e-07, No Iterations 20
Time = 0.00164s

diagonal:  Solving for Ux, Initial residual = 0, Final residual = 0, No Iterations 0
diagonal:  Solving for Uy, Initial residual = 0, Final residual = 0, No Iterations 0
GAMG:  Solving for p, Initial residual = 0.0378459, Final residual = 3.87448e-07, No Iterations 22
Time = 0.00165s

diagonal:  Solving for Ux, Initial residual = 0, Final residual = 0, No Iterations 0
diagonal:  Solving for Uy, Initial residual = 0, Final residual = 0, No Iterations 0
GAMG:  Solving for p, Initial residual = 0.0872649, Final residual = 7.02289e-07, No Iterations 18
Time = 0.00166s

diagonal:  Solving for Ux, Initial residual = 0, Final residual = 0, No Iterations 0
diagonal:  Solving for Uy, Initial residual = 0, Final residual = 0, No Iterations 0
GAMG:  Solving for p, Initial residual = 0.0681469, Final residual = 4.55287e-07, No Iterations 20
Time = 0.00167s

diagonal:  Solving for Ux, Initial residual = 0, Final residual = 0, No Iterations 0
diagonal:  Solving for Uy, Initial residual = 0, Final residual = 0, No Iterations 0
GAMG:  Solving for p, Initial residual = 0.0418631, Final residual = 4.79714e-07, No Iterations 20
Time = 0.00168s

diagonal:  Solving for Ux, Initial residual = 0, Final residual = 0, No Iterations 0
diagonal:  Solving for Uy, Initial residual = 0, Final residual = 0, No Iterations 0
GAMG:  Solving for p, Initial residual = 0.104606, Final residual = 6.847e-07, No Iterations 19
Time = 0.00169s

diagonal:  Solving for Ux, Initial residual = 0, Final residual = 0, No Iterations 0
diagonal:  Solving for Uy, Initial residual = 0, Final residual = 0, No Iterations 0
GAMG:  Solving for p, Initial residual = 0.0640516, Final residual = 5.68033e-07, No Iterations 22
Time = 0.0017s

diagonal:  Solving for Ux, Initial residual = 0, Final residual = 0, No Iterations 0
diagonal:  Solving for Uy, Initial residual = 0, Final residual = 0, No Iterations 0
GAMG:  Solving for p, Initial residual = 0.047202, Final residual = 6.74343e-07, No Iterations 20
Time = 0.00171s

diagonal:  Solving for Ux, Initial residual = 0, Final residual = 0, No Iterations 0
diagonal:  Solving for Uy, Initial residual = 0, Final residual = 0, No Iterations 0
GAMG:  Solving for p, Initial residual = 0.0953783, Final residual = 7.41941e-07, No Iterations 21
Time = 0.00172s

diagonal:  Solving for Ux, Initial residual = 0, Final residual = 0, No Iterations 0
diagonal:  Solving for Uy, Initial residual = 0, Final residual = 0, No Iterations 0
GAMG:  Solving for p, Initial residual = 0.0719903, Final residual = 7.0771e-07, No Iterations 18
Time = 0.00173s

diagonal:  Solving for Ux, Initial residual = 0, Final residual = 0, No Iterations 0
diagonal:  Solving for Uy, Initial residual = 0, Final residual = 0, No Iterations 0
GAMG:  Solving for p, Initial residual = 0.0626191, Final residual = 8.01303e-07, No Iterations 20
Time = 0.00174s

diagonal:  Solving for Ux, Initial residual = 0, Final residual = 0, No Iterations 0
diagonal:  Solving for Uy, Initial residual = 0, Final residual = 0, No Iterations 0
GAMG:  Solving for p, Initial residual = 0.0701596, Final residual = 4.87853e-07, No Iterations 22
Time = 0.00175s

diagonal:  Solving for Ux, Initial residual = 0, Final residual = 0, No Iterations 0
diagonal:  Solving for Uy, Initial residual = 0, Final residual = 0, No Iterations 0
GAMG:  Solving for p, Initial residual = 0.0597608, Final residual = 4.74082e-07, No Iterations 18
Time = 0.00176s

diagonal:  Solving for Ux, Initial residual = 0, Final residual = 0, No Iterations 0
diagonal:  Solving for Uy, Initial residual = 0, Final residual = 0, No Iterations 0
GAMG:  Solving for p, Initial residual = 0.0716005, Final residual = 7.83022e-07, No Iterations 20
Time = 0.00177s

diagonal:  Solving for Ux, Initial residual = 0, Final residual = 0, No Iterations 0
diagonal:  Solving for Uy, Initial residual = 0, Final residual = 0, No Iterations 0
GAMG:  Solving for p, Initial residual = 0.0878084, Final residual = 9.21513e-07, No Iterations 21
Time = 0.00178s

diagonal:  Solving for Ux, Initial residual = 0, Final residual = 0, No Iterations 0
diagonal:  Solving for Uy, Initial residual = 0, Final residual = 0, No Iterations 0
GAMG:  Solving for p, Initial residual = 0.0543531, Final residual = 9.84506e-07, No Iterations 20
Time = 0.00179s

diagonal:  Solving for Ux, Initial residual = 0, Final residual = 0, No Iterations 0
diagonal:  Solving for Uy, Initial residual = 0, Final residual = 0, No Iterations 0
GAMG:  Solving for p, Initial residual = 0.0487577, Final residual = 4.97204e-07, No Iterations 22
Time = 0.0018s

diagonal:  Solving for Ux, Initial residual = 0, Final residual = 0, No Iterations 0
diagonal:  Solving for Uy, Initial residual = 0, Final residual = 0, No Iterations 0
GAMG:  Solving for p, Initial residual = 0.125795, Final residual = 2.58417e-07, No Iterations 18
Time = 0.00181s

diagonal:  Solving for Ux, Initial residual = 0, Final residual = 0, No Iterations 0
diagonal:  Solving for Uy, Initial residual = 0, Final residual = 0, No Iterations 0
GAMG:  Solving for p, Initial residual = 0.0651125, Final residual = 3.19356e-07, No Iterations 22
Time = 0.00182s

diagonal:  Solving for Ux, Initial residual = 0, Final residual = 0, No Iterations 0
diagonal:  Solving for Uy, Initial residual = 0, Final residual = 0, No Iterations 0
GAMG:  Solving for p, Initial residual = 0.0829613, Final residual = 9.43253e-07, No Iterations 21
Time = 0.00183s

diagonal:  Solving for Ux, Initial residual = 0, Final residual = 0, No Iterations 0
diagonal:  Solving for Uy, Initial residual = 0, Final residual = 0, No Iterations 0
GAMG:  Solving for p, Initial residual = 0.0421908, Final residual = 5.9132e-07, No Iterations 22
Time = 0.00184s

diagonal:  Solving for Ux, Initial residual = 0, Final residual = 0, No Iterations 0
diagonal:  Solving for Uy, Initial residual = 0, Final residual = 0, No Iterations 0
GAMG:  Solving for p, Initial residual = 0.0993178, Final residual = 6.30424e-07, No Iterations 20
Time = 0.00185s

diagonal:  Solving for Ux, Initial residual = 0, Final residual = 0, No Iterations 0
diagonal:  Solving for Uy, Initial residual = 0, Final residual = 0, No Iterations 0
GAMG:  Solving for p, Initial residual = 0.0820529, Final residual = 7.64215e-07, No Iterations 19
Time = 0.00186s

diagonal:  Solving for Ux, Initial residual = 0, Final residual = 0, No Iterations 0
diagonal:  Solving for Uy, Initial residual = 0, Final residual = 0, No Iterations 0
GAMG:  Solving for p, Initial residual = 0.075536, Final residual = 4.5847e-07, No Iterations 22
Time = 0.00187s

diagonal:  Solving for Ux, Initial residual = 0, Final residual = 0, No Iterations 0
diagonal:  Solving for Uy, Initial residual = 0, Final residual = 0, No Iterations 0
GAMG:  Solving for p, Initial residual = 0.0685606, Final residual = 4.57886e-07, No Iterations 22
Time = 0.00188s

diagonal:  Solving for Ux, Initial residual = 0, Final residual = 0, No Iterations 0
diagonal:  Solving for Uy, Initial residual = 0, Final residual = 0, No Iterations 0
GAMG:  Solving for p, Initial residual = 0.109089, Final residual = 4.97916e-07, No Iterations 16
Time = 0.00189s

diagonal:  Solving for Ux, Initial residual = 0, Final residual = 0, No Iterations 0
diagonal:  Solving for Uy, Initial residual = 0, Final residual = 0, No Iterations 0
GAMG:  Solving for p, Initial residual = 0.0536886, Final residual = 9.262e-07, No Iterations 21
Time = 0.0019s

diagonal:  Solving for Ux, Initial residual = 0, Final residual = 0, No Iterations 0
diagonal:  Solving for Uy, Initial residual = 0, Final residual = 0, No Iterations 0
GAMG:  Solving for p, Initial residual = 0.109213, Final residual = 6.82088e-07, No Iterations 22
Time = 0.00191s

diagonal:  Solving for Ux, Initial residual = 0, Final residual = 0, No Iterations 0
diagonal:  Solving for Uy, Initial residual = 0, Final residual = 0, No Iterations 0
GAMG:  Solving for p, Initial residual = 0.0659883, Final residual = 9.80413e-07, No Iterations 17
Time = 0.00192s

diagonal:  Solving for Ux, Initial residual = 0, Final residual = 0, No Iterations 0
diagonal:  Solving for Uy, Initial residual = 0, Final residual = 0, No Iterations 0
GAMG:  Solving for p, Initial residual = 0.0476772, Final residual = 3.34406e-07, No Iterations 22
Time = 0.00193s

diagonal:  Solving for Ux, Initial residual = 0, Final residual = 0, No Iterations 0
diagonal:  Solving for Uy, Initial residual = 0, Final residual = 0, No Iterations 0
GAMG:  Solving for p, Initial residual = 0.088825, Final residual = 6.84295e-07, No Iterations 22
Time = 0.00194s

diagonal:  Solving for Ux, Initial residual = 0, Final residual = 0, No Iterations 0
diagonal:  Solving for Uy, Initial residual = 0, Final residual = 0, No Iterations 0
GAMG:  Solving for p, Initial residual = 0.0803842, Final residual = 9.22539e-07, No Iterations 20
Time = 0.00195s

diagonal:  Solving for Ux, Initial residual = 0, Final residual = 0, No Iterations 0
diagonal:  Solving for Uy, Initial residual = 0, Final residual = 0, No Iterations 0
GAMG:  Solving for p, Initial residual = 0.118135, Final residual = 8.41568e-07, No Iterations 20
Time = 0.00196s

diagonal:  Solving for Ux, Initial residual = 0, Final residual = 0, No Iterations 0
diagonal:  Solving for Uy, Initial residual = 0, Final residual = 0, No Iterations 0
GAMG:  Solving for p, Initial residual = 0.147502, Final residual = 6.15987e-07, No Iterations 22
Time = 0.00197s

diagonal:  Solving for Ux, Initial residual = 0, Final residual = 0, No Iterations 0
diagonal:  Solving for Uy, Initial residual = 0, Final residual = 0, No Iterations 0
GAMG:  Solving for p, Initial residual = 0.10318, Final residual = 4.43133e-07, No Iterations 22
Time = 0.00198s

diagonal:  Solving for Ux, Initial residual = 0, Final residual = 0, No Iterations 0
diagonal:  Solving for Uy, Initial residual = 0, Final residual = 0, No Iterations 0
GAMG:  Solving for p, Initial residual = 0.0982083, Final residual = 3.96458e-07, No Iterations 22
Time = 0.00199s

diagonal:  Solving for Ux, Initial residual = 0, Final residual = 0, No Iterations 0
diagonal:  Solving for Uy, Initial residual = 0, Final residual = 0, No Iterations 0
GAMG:  Solving for p, Initial residual = 0.128717, Final residual = 2.64254e-07, No Iterations 22
Time = 0.002s

diagonal:  Solving for Ux, Initial residual = 0, Final residual = 0, No Iterations 0
diagonal:  Solving for Uy, Initial residual = 0, Final residual = 0, No Iterations 0
GAMG:  Solving for p, Initial residual = 0.0724137, Final residual = 3.89957e-07, No Iterations 22
Time = 0.00201s

diagonal:  Solving for Ux, Initial residual = 0, Final residual = 0, No Iterations 0
diagonal:  Solving for Uy, Initial residual = 0, Final residual = 0, No Iterations 0
GAMG:  Solving for p, Initial residual = 0.19622, Final residual = 9.04779e-07, No Iterations 18
Time = 0.00202s

diagonal:  Solving for Ux, Initial residual = 0, Final residual = 0, No Iterations 0
diagonal:  Solving for Uy, Initial residual = 0, Final residual = 0, No Iterations 0
GAMG:  Solving for p, Initial residual = 0.0453699, Final residual = 7.80547e-07, No Iterations 15
Time = 0.00203s

diagonal:  Solving for Ux, Initial residual = 0, Final residual = 0, No Iterations 0
diagonal:  Solving for Uy, Initial residual = 0, Final residual = 0, No Iterations 0
GAMG:  Solving for p, Initial residual = 0.0476538, Final residual = 6.82031e-07, No Iterations 17
Time = 0.00204s

diagonal:  Solving for Ux, Initial residual = 0, Final residual = 0, No Iterations 0
diagonal:  Solving for Uy, Initial residual = 0, Final residual = 0, No Iterations 0
GAMG:  Solving for p, Initial residual = 0.0519419, Final residual = 4.89282e-07, No Iterations 22
Time = 0.00205s

diagonal:  Solving for Ux, Initial residual = 0, Final residual = 0, No Iterations 0
diagonal:  Solving for Uy, Initial residual = 0, Final residual = 0, No Iterations 0
GAMG:  Solving for p, Initial residual = 0.0481317, Final residual = 8.77704e-07, No Iterations 20
Time = 0.00206s

diagonal:  Solving for Ux, Initial residual = 0, Final residual = 0, No Iterations 0
diagonal:  Solving for Uy, Initial residual = 0, Final residual = 0, No Iterations 0
GAMG:  Solving for p, Initial residual = 0.119237, Final residual = 5.66237e-07, No Iterations 20
Time = 0.00207s

diagonal:  Solving for Ux, Initial residual = 0, Final residual = 0, No Iterations 0
diagonal:  Solving for Uy, Initial residual = 0, Final residual = 0, No Iterations 0
GAMG:  Solving for p, Initial residual = 0.0720946, Final residual = 5.48417e-07, No Iterations 22
Time = 0.00208s

diagonal:  Solving for Ux, Initial residual = 0, Final residual = 0, No Iterations 0
diagonal:  Solving for Uy, Initial residual = 0, Final residual = 0, No Iterations 0
GAMG:  Solving for p, Initial residual = 0.0741033, Final residual = 3.43652e-07, No Iterations 22
Time = 0.00209s

diagonal:  Solving for Ux, Initial residual = 0, Final residual = 0, No Iterations 0
diagonal:  Solving for Uy, Initial residual = 0, Final residual = 0, No Iterations 0
GAMG:  Solving for p, Initial residual = 0.146318, Final residual = 5.10573e-07, No Iterations 22
Time = 0.0021s

diagonal:  Solving for Ux, Initial residual = 0, Final residual = 0, No Iterations 0
diagonal:  Solving for Uy, Initial residual = 0, Final residual = 0, No Iterations 0
GAMG:  Solving for p, Initial residual = 0.0572124, Final residual = 4.32324e-07, No Iterations 22
Time = 0.00211s

diagonal:  Solving for Ux, Initial residual = 0, Final residual = 0, No Iterations 0
diagonal:  Solving for Uy, Initial residual = 0, Final residual = 0, No Iterations 0
GAMG:  Solving for p, Initial residual = 0.132127, Final residual = 4.29668e-07, No Iterations 20
Time = 0.00212s

diagonal:  Solving for Ux, Initial residual = 0, Final residual = 0, No Iterations 0
diagonal:  Solving for Uy, Initial residual = 0, Final residual = 0, No Iterations 0
GAMG:  Solving for p, Initial residual = 0.0933686, Final residual = 3.07113e-07, No Iterations 22
Time = 0.00213s

diagonal:  Solving for Ux, Initial residual = 0, Final residual = 0, No Iterations 0
diagonal:  Solving for Uy, Initial residual = 0, Final residual = 0, No Iterations 0
GAMG:  Solving for p, Initial residual = 0.0661365, Final residual = 4.65632e-07, No Iterations 22
Time = 0.00214s

diagonal:  Solving for Ux, Initial residual = 0, Final residual = 0, No Iterations 0
diagonal:  Solving for Uy, Initial residual = 0, Final residual = 0, No Iterations 0
GAMG:  Solving for p, Initial residual = 0.112401, Final residual = 4.96889e-07, No Iterations 22
Time = 0.00215s

diagonal:  Solving for Ux, Initial residual = 0, Final residual = 0, No Iterations 0
diagonal:  Solving for Uy, Initial residual = 0, Final residual = 0, No Iterations 0
GAMG:  Solving for p, Initial residual = 0.156011, Final residual = 6.85697e-07, No Iterations 20
Time = 0.00216s

diagonal:  Solving for Ux, Initial residual = 0, Final residual = 0, No Iterations 0
diagonal:  Solving for Uy, Initial residual = 0, Final residual = 0, No Iterations 0
GAMG:  Solving for p, Initial residual = 0.137114, Final residual = 8.09981e-07, No Iterations 21
Time = 0.00217s

diagonal:  Solving for Ux, Initial residual = 0, Final residual = 0, No Iterations 0
diagonal:  Solving for Uy, Initial residual = 0, Final residual = 0, No Iterations 0
GAMG:  Solving for p, Initial residual = 0.0637891, Final residual = 7.27674e-07, No Iterations 17
Time = 0.00218s

diagonal:  Solving for Ux, Initial residual = 0, Final residual = 0, No Iterations 0
diagonal:  Solving for Uy, Initial residual = 0, Final residual = 0, No Iterations 0
GAMG:  Solving for p, Initial residual = 0.0446091, Final residual = 5.8273e-07, No Iterations 22
Time = 0.00219s

diagonal:  Solving for Ux, Initial residual = 0, Final residual = 0, No Iterations 0
diagonal:  Solving for Uy, Initial residual = 0, Final residual = 0, No Iterations 0
GAMG:  Solving for p, Initial residual = 0.0930446, Final residual = 3.47817e-07, No Iterations 22
Time = 0.0022s

diagonal:  Solving for Ux, Initial residual = 0, Final residual = 0, No Iterations 0
diagonal:  Solving for Uy, Initial residual = 0, Final residual = 0, No Iterations 0
GAMG:  Solving for p, Initial residual = 0.0944679, Final residual = 9.89978e-07, No Iterations 20
Time = 0.00221s

diagonal:  Solving for Ux, Initial residual = 0, Final residual = 0, No Iterations 0
diagonal:  Solving for Uy, Initial residual = 0, Final residual = 0, No Iterations 0
GAMG:  Solving for p, Initial residual = 0.201683, Final residual = 5.00624e-07, No Iterations 20
Time = 0.00222s

diagonal:  Solving for Ux, Initial residual = 0, Final residual = 0, No Iterations 0
diagonal:  Solving for Uy, Initial residual = 0, Final residual = 0, No Iterations 0
GAMG:  Solving for p, Initial residual = 0.0667247, Final residual = 5.91695e-07, No Iterations 19
Time = 0.00223s

diagonal:  Solving for Ux, Initial residual = 0, Final residual = 0, No Iterations 0
diagonal:  Solving for Uy, Initial residual = 0, Final residual = 0, No Iterations 0
GAMG:  Solving for p, Initial residual = 0.0380335, Final residual = 7.5343e-07, No Iterations 20
Time = 0.00224s

diagonal:  Solving for Ux, Initial residual = 0, Final residual = 0, No Iterations 0
diagonal:  Solving for Uy, Initial residual = 0, Final residual = 0, No Iterations 0
GAMG:  Solving for p, Initial residual = 0.119244, Final residual = 3.82849e-07, No Iterations 22
Time = 0.00225s

diagonal:  Solving for Ux, Initial residual = 0, Final residual = 0, No Iterations 0
diagonal:  Solving for Uy, Initial residual = 0, Final residual = 0, No Iterations 0
GAMG:  Solving for p, Initial residual = 0.0833626, Final residual = 5.59727e-07, No Iterations 24
Time = 0.00226s

diagonal:  Solving for Ux, Initial residual = 0, Final residual = 0, No Iterations 0
diagonal:  Solving for Uy, Initial residual = 0, Final residual = 0, No Iterations 0
GAMG:  Solving for p, Initial residual = 0.0492889, Final residual = 9.21441e-07, No Iterations 21
Time = 0.00227s

diagonal:  Solving for Ux, Initial residual = 0, Final residual = 0, No Iterations 0
diagonal:  Solving for Uy, Initial residual = 0, Final residual = 0, No Iterations 0
GAMG:  Solving for p, Initial residual = 0.0919697, Final residual = 4.70212e-07, No Iterations 22
Time = 0.00228s

diagonal:  Solving for Ux, Initial residual = 0, Final residual = 0, No Iterations 0
diagonal:  Solving for Uy, Initial residual = 0, Final residual = 0, No Iterations 0
GAMG:  Solving for p, Initial residual = 0.0511665, Final residual = 9.00278e-07, No Iterations 21
Time = 0.00229s

diagonal:  Solving for Ux, Initial residual = 0, Final residual = 0, No Iterations 0
diagonal:  Solving for Uy, Initial residual = 0, Final residual = 0, No Iterations 0
GAMG:  Solving for p, Initial residual = 0.12399, Final residual = 7.47219e-07, No Iterations 22
Time = 0.0023s

diagonal:  Solving for Ux, Initial residual = 0, Final residual = 0, No Iterations 0
diagonal:  Solving for Uy, Initial residual = 0, Final residual = 0, No Iterations 0
GAMG:  Solving for p, Initial residual = 0.0559311, Final residual = 9.52831e-07, No Iterations 21
Time = 0.00231s

diagonal:  Solving for Ux, Initial residual = 0, Final residual = 0, No Iterations 0
diagonal:  Solving for Uy, Initial residual = 0, Final residual = 0, No Iterations 0
GAMG:  Solving for p, Initial residual = 0.179576, Final residual = 6.95709e-07, No Iterations 21
Time = 0.00232s

diagonal:  Solving for Ux, Initial residual = 0, Final residual = 0, No Iterations 0
diagonal:  Solving for Uy, Initial residual = 0, Final residual = 0, No Iterations 0
GAMG:  Solving for p, Initial residual = 0.0494799, Final residual = 6.09519e-07, No Iterations 16
Time = 0.00233s

diagonal:  Solving for Ux, Initial residual = 0, Final residual = 0, No Iterations 0
diagonal:  Solving for Uy, Initial residual = 0, Final residual = 0, No Iterations 0
GAMG:  Solving for p, Initial residual = 0.0580797, Final residual = 6.66622e-07, No Iterations 17
Time = 0.00234s

diagonal:  Solving for Ux, Initial residual = 0, Final residual = 0, No Iterations 0
diagonal:  Solving for Uy, Initial residual = 0, Final residual = 0, No Iterations 0
GAMG:  Solving for p, Initial residual = 0.057056, Final residual = 7.27189e-07, No Iterations 19
Time = 0.00235s

diagonal:  Solving for Ux, Initial residual = 0, Final residual = 0, No Iterations 0
diagonal:  Solving for Uy, Initial residual = 0, Final residual = 0, No Iterations 0
GAMG:  Solving for p, Initial residual = 0.0637, Final residual = 4.25704e-07, No Iterations 22
Time = 0.00236s

diagonal:  Solving for Ux, Initial residual = 0, Final residual = 0, No Iterations 0
diagonal:  Solving for Uy, Initial residual = 0, Final residual = 0, No Iterations 0
GAMG:  Solving for p, Initial residual = 0.0857537, Final residual = 6.57206e-07, No Iterations 20
Time = 0.00237s

diagonal:  Solving for Ux, Initial residual = 0, Final residual = 0, No Iterations 0
diagonal:  Solving for Uy, Initial residual = 0, Final residual = 0, No Iterations 0
GAMG:  Solving for p, Initial residual = 0.0455736, Final residual = 5.60532e-07, No Iterations 22
Time = 0.00238s

diagonal:  Solving for Ux, Initial residual = 0, Final residual = 0, No Iterations 0
diagonal:  Solving for Uy, Initial residual = 0, Final residual = 0, No Iterations 0
GAMG:  Solving for p, Initial residual = 0.110189, Final residual = 5.11903e-07, No Iterations 22
Time = 0.00239s

diagonal:  Solving for Ux, Initial residual = 0, Final residual = 0, No Iterations 0
diagonal:  Solving for Uy, Initial residual = 0, Final residual = 0, No Iterations 0
GAMG:  Solving for p, Initial residual = 0.141389, Final residual = 2.32697e-07, No Iterations 22
Time = 0.0024s

diagonal:  Solving for Ux, Initial residual = 0, Final residual = 0, No Iterations 0
diagonal:  Solving for Uy, Initial residual = 0, Final residual = 0, No Iterations 0
GAMG:  Solving for p, Initial residual = 0.0849848, Final residual = 3.13207e-07, No Iterations 22
Time = 0.00241s

diagonal:  Solving for Ux, Initial residual = 0, Final residual = 0, No Iterations 0
diagonal:  Solving for Uy, Initial residual = 0, Final residual = 0, No Iterations 0
GAMG:  Solving for p, Initial residual = 0.134753, Final residual = 5.95508e-07, No Iterations 21
Time = 0.00242s

diagonal:  Solving for Ux, Initial residual = 0, Final residual = 0, No Iterations 0
diagonal:  Solving for Uy, Initial residual = 0, Final residual = 0, No Iterations 0
GAMG:  Solving for p, Initial residual = 0.0354037, Final residual = 4.6604e-07, No Iterations 22
Time = 0.00243s

diagonal:  Solving for Ux, Initial residual = 0, Final residual = 0, No Iterations 0
diagonal:  Solving for Uy, Initial residual = 0, Final residual = 0, No Iterations 0
GAMG:  Solving for p, Initial residual = 0.154291, Final residual = 5.56656e-07, No Iterations 22
Time = 0.00244s

diagonal:  Solving for Ux, Initial residual = 0, Final residual = 0, No Iterations 0
diagonal:  Solving for Uy, Initial residual = 0, Final residual = 0, No Iterations 0
GAMG:  Solving for p, Initial residual = 0.126491, Final residual = 9.54431e-07, No Iterations 21
Time = 0.00245s

diagonal:  Solving for Ux, Initial residual = 0, Final residual = 0, No Iterations 0
diagonal:  Solving for Uy, Initial residual = 0, Final residual = 0, No Iterations 0
GAMG:  Solving for p, Initial residual = 0.13119, Final residual = 8.74842e-07, No Iterations 19
Time = 0.00246s

diagonal:  Solving for Ux, Initial residual = 0, Final residual = 0, No Iterations 0
diagonal:  Solving for Uy, Initial residual = 0, Final residual = 0, No Iterations 0
GAMG:  Solving for p, Initial residual = 0.056616, Final residual = 5.03048e-07, No Iterations 17
Time = 0.00247s

diagonal:  Solving for Ux, Initial residual = 0, Final residual = 0, No Iterations 0
diagonal:  Solving for Uy, Initial residual = 0, Final residual = 0, No Iterations 0
GAMG:  Solving for p, Initial residual = 0.0363862, Final residual = 9.012e-07, No Iterations 21
Time = 0.00248s

diagonal:  Solving for Ux, Initial residual = 0, Final residual = 0, No Iterations 0
diagonal:  Solving for Uy, Initial residual = 0, Final residual = 0, No Iterations 0
GAMG:  Solving for p, Initial residual = 0.095595, Final residual = 6.62537e-07, No Iterations 22
Time = 0.00249s

diagonal:  Solving for Ux, Initial residual = 0, Final residual = 0, No Iterations 0
diagonal:  Solving for Uy, Initial residual = 0, Final residual = 0, No Iterations 0
GAMG:  Solving for p, Initial residual = 0.0557563, Final residual = 3.72621e-07, No Iterations 22
Time = 0.0025s

diagonal:  Solving for Ux, Initial residual = 0, Final residual = 0, No Iterations 0
diagonal:  Solving for Uy, Initial residual = 0, Final residual = 0, No Iterations 0
GAMG:  Solving for p, Initial residual = 0.143527, Final residual = 9.92681e-07, No Iterations 18
Time = 0.00251s

diagonal:  Solving for Ux, Initial residual = 0, Final residual = 0, No Iterations 0
diagonal:  Solving for Uy, Initial residual = 0, Final residual = 0, No Iterations 0
GAMG:  Solving for p, Initial residual = 0.109199, Final residual = 4.60711e-07, No Iterations 22
Time = 0.00252s

diagonal:  Solving for Ux, Initial residual = 0, Final residual = 0, No Iterations 0
diagonal:  Solving for Uy, Initial residual = 0, Final residual = 0, No Iterations 0
GAMG:  Solving for p, Initial residual = 0.0628536, Final residual = 3.74441e-07, No Iterations 22
Time = 0.00253s

diagonal:  Solving for Ux, Initial residual = 0, Final residual = 0, No Iterations 0
diagonal:  Solving for Uy, Initial residual = 0, Final residual = 0, No Iterations 0
GAMG:  Solving for p, Initial residual = 0.138653, Final residual = 5.06554e-07, No Iterations 22
Time = 0.00254s

diagonal:  Solving for Ux, Initial residual = 0, Final residual = 0, No Iterations 0
diagonal:  Solving for Uy, Initial residual = 0, Final residual = 0, No Iterations 0
GAMG:  Solving for p, Initial residual = 0.0431846, Final residual = 8.54787e-07, No Iterations 17
Time = 0.00255s

diagonal:  Solving for Ux, Initial residual = 0, Final residual = 0, No Iterations 0
diagonal:  Solving for Uy, Initial residual = 0, Final residual = 0, No Iterations 0
GAMG:  Solving for p, Initial residual = 0.0697453, Final residual = 4.6725e-07, No Iterations 22
Time = 0.00256s

diagonal:  Solving for Ux, Initial residual = 0, Final residual = 0, No Iterations 0
diagonal:  Solving for Uy, Initial residual = 0, Final residual = 0, No Iterations 0
GAMG:  Solving for p, Initial residual = 0.0771669, Final residual = 3.56254e-07, No Iterations 22
Time = 0.00257s

diagonal:  Solving for Ux, Initial residual = 0, Final residual = 0, No Iterations 0
diagonal:  Solving for Uy, Initial residual = 0, Final residual = 0, No Iterations 0
GAMG:  Solving for p, Initial residual = 0.160455, Final residual = 5.09753e-07, No Iterations 22
Time = 0.00258s

diagonal:  Solving for Ux, Initial residual = 0, Final residual = 0, No Iterations 0
diagonal:  Solving for Uy, Initial residual = 0, Final residual = 0, No Iterations 0
GAMG:  Solving for p, Initial residual = 0.0656688, Final residual = 6.3867e-07, No Iterations 22
Time = 0.00259s

diagonal:  Solving for Ux, Initial residual = 0, Final residual = 0, No Iterations 0
diagonal:  Solving for Uy, Initial residual = 0, Final residual = 0, No Iterations 0
GAMG:  Solving for p, Initial residual = 0.103298, Final residual = 4.02382e-07, No Iterations 22
Time = 0.0026s

diagonal:  Solving for Ux, Initial residual = 0, Final residual = 0, No Iterations 0
diagonal:  Solving for Uy, Initial residual = 0, Final residual = 0, No Iterations 0
GAMG:  Solving for p, Initial residual = 0.195043, Final residual = 6.62638e-07, No Iterations 20
Time = 0.00261s

diagonal:  Solving for Ux, Initial residual = 0, Final residual = 0, No Iterations 0
diagonal:  Solving for Uy, Initial residual = 0, Final residual = 0, No Iterations 0
GAMG:  Solving for p, Initial residual = 0.0934309, Final residual = 4.89776e-07, No Iterations 18
Time = 0.00262s

diagonal:  Solving for Ux, Initial residual = 0, Final residual = 0, No Iterations 0
diagonal:  Solving for Uy, Initial residual = 0, Final residual = 0, No Iterations 0
GAMG:  Solving for p, Initial residual = 0.0632893, Final residual = 2.99407e-07, No Iterations 22
Time = 0.00263s

diagonal:  Solving for Ux, Initial residual = 0, Final residual = 0, No Iterations 0
diagonal:  Solving for Uy, Initial residual = 0, Final residual = 0, No Iterations 0
GAMG:  Solving for p, Initial residual = 0.0525389, Final residual = 4.85172e-07, No Iterations 18
Time = 0.00264s

diagonal:  Solving for Ux, Initial residual = 0, Final residual = 0, No Iterations 0
diagonal:  Solving for Uy, Initial residual = 0, Final residual = 0, No Iterations 0
GAMG:  Solving for p, Initial residual = 0.0593564, Final residual = 9.48113e-07, No Iterations 18
Time = 0.00265s

diagonal:  Solving for Ux, Initial residual = 0, Final residual = 0, No Iterations 0
diagonal:  Solving for Uy, Initial residual = 0, Final residual = 0, No Iterations 0
GAMG:  Solving for p, Initial residual = 0.0699864, Final residual = 8.56601e-07, No Iterations 20
Time = 0.00266s

diagonal:  Solving for Ux, Initial residual = 0, Final residual = 0, No Iterations 0
diagonal:  Solving for Uy, Initial residual = 0, Final residual = 0, No Iterations 0
GAMG:  Solving for p, Initial residual = 0.0585751, Final residual = 7.56779e-07, No Iterations 20
Time = 0.00267s

diagonal:  Solving for Ux, Initial residual = 0, Final residual = 0, No Iterations 0
diagonal:  Solving for Uy, Initial residual = 0, Final residual = 0, No Iterations 0
GAMG:  Solving for p, Initial residual = 0.0633923, Final residual = 7.10195e-07, No Iterations 22
Time = 0.00268s

diagonal:  Solving for Ux, Initial residual = 0, Final residual = 0, No Iterations 0
diagonal:  Solving for Uy, Initial residual = 0, Final residual = 0, No Iterations 0
GAMG:  Solving for p, Initial residual = 0.0855256, Final residual = 4.49144e-07, No Iterations 22
Time = 0.00269s

diagonal:  Solving for Ux, Initial residual = 0, Final residual = 0, No Iterations 0
diagonal:  Solving for Uy, Initial residual = 0, Final residual = 0, No Iterations 0
GAMG:  Solving for p, Initial residual = 0.15757, Final residual = 4.84905e-07, No Iterations 22
Time = 0.0027s

diagonal:  Solving for Ux, Initial residual = 0, Final residual = 0, No Iterations 0
diagonal:  Solving for Uy, Initial residual = 0, Final residual = 0, No Iterations 0
GAMG:  Solving for p, Initial residual = 0.080371, Final residual = 9.44372e-07, No Iterations 21
Time = 0.00271s

diagonal:  Solving for Ux, Initial residual = 0, Final residual = 0, No Iterations 0
diagonal:  Solving for Uy, Initial residual = 0, Final residual = 0, No Iterations 0
GAMG:  Solving for p, Initial residual = 0.0874895, Final residual = 8.12252e-07, No Iterations 19
Time = 0.00272s

diagonal:  Solving for Ux, Initial residual = 0, Final residual = 0, No Iterations 0
diagonal:  Solving for Uy, Initial residual = 0, Final residual = 0, No Iterations 0
GAMG:  Solving for p, Initial residual = 0.0817166, Final residual = 8.57684e-07, No Iterations 19
Time = 0.00273s

diagonal:  Solving for Ux, Initial residual = 0, Final residual = 0, No Iterations 0
diagonal:  Solving for Uy, Initial residual = 0, Final residual = 0, No Iterations 0
GAMG:  Solving for p, Initial residual = 0.0619775, Final residual = 4.59605e-07, No Iterations 22
Time = 0.00274s

diagonal:  Solving for Ux, Initial residual = 0, Final residual = 0, No Iterations 0
diagonal:  Solving for Uy, Initial residual = 0, Final residual = 0, No Iterations 0
GAMG:  Solving for p, Initial residual = 0.0831835, Final residual = 5.62653e-07, No Iterations 18
Time = 0.00275s

diagonal:  Solving for Ux, Initial residual = 0, Final residual = 0, No Iterations 0
diagonal:  Solving for Uy, Initial residual = 0, Final residual = 0, No Iterations 0
GAMG:  Solving for p, Initial residual = 0.058082, Final residual = 5.17052e-07, No Iterations 16
Time = 0.00276s

diagonal:  Solving for Ux, Initial residual = 0, Final residual = 0, No Iterations 0
diagonal:  Solving for Uy, Initial residual = 0, Final residual = 0, No Iterations 0
[...]
GAMG:  Solving for p, Initial residual = 0.04217, Final residual = 4.61814e-07, No Iterations 22
Time = 0.0497s

diagonal:  Solving for Ux, Initial residual = 0, Final residual = 0, No Iterations 0
diagonal:  Solving for Uy, Initial residual = 0, Final residual = 0, No Iterations 0
GAMG:  Solving for p, Initial residual = 0.0560163, Final residual = 3.99581e-07, No Iterations 22
Time = 0.04971s

diagonal:  Solving for Ux, Initial residual = 0, Final residual = 0, No Iterations 0
diagonal:  Solving for Uy, Initial residual = 0, Final residual = 0, No Iterations 0
GAMG:  Solving for p, Initial residual = 0.0807129, Final residual = 7.34751e-07, No Iterations 20
Time = 0.04972s

diagonal:  Solving for Ux, Initial residual = 0, Final residual = 0, No Iterations 0
diagonal:  Solving for Uy, Initial residual = 0, Final residual = 0, No Iterations 0
GAMG:  Solving for p, Initial residual = 0.107542, Final residual = 9.10512e-07, No Iterations 20
Time = 0.04973s

diagonal:  Solving for Ux, Initial residual = 0, Final residual = 0, No Iterations 0
diagonal:  Solving for Uy, Initial residual = 0, Final residual = 0, No Iterations 0
GAMG:  Solving for p, Initial residual = 0.0741846, Final residual = 5.28357e-07, No Iterations 18
Time = 0.04974s

diagonal:  Solving for Ux, Initial residual = 0, Final residual = 0, No Iterations 0
diagonal:  Solving for Uy, Initial residual = 0, Final residual = 0, No Iterations 0
GAMG:  Solving for p, Initial residual = 0.0315197, Final residual = 7.86025e-07, No Iterations 20
Time = 0.04975s

diagonal:  Solving for Ux, Initial residual = 0, Final residual = 0, No Iterations 0
diagonal:  Solving for Uy, Initial residual = 0, Final residual = 0, No Iterations 0
GAMG:  Solving for p, Initial residual = 0.0431492, Final residual = 3.36965e-07, No Iterations 22
Time = 0.04976s

diagonal:  Solving for Ux, Initial residual = 0, Final residual = 0, No Iterations 0
diagonal:  Solving for Uy, Initial residual = 0, Final residual = 0, No Iterations 0
GAMG:  Solving for p, Initial residual = 0.0936514, Final residual = 9.27699e-07, No Iterations 21
Time = 0.04977s

diagonal:  Solving for Ux, Initial residual = 0, Final residual = 0, No Iterations 0
diagonal:  Solving for Uy, Initial residual = 0, Final residual = 0, No Iterations 0
GAMG:  Solving for p, Initial residual = 0.0730966, Final residual = 3.34794e-07, No Iterations 22
Time = 0.04978s

diagonal:  Solving for Ux, Initial residual = 0, Final residual = 0, No Iterations 0
diagonal:  Solving for Uy, Initial residual = 0, Final residual = 0, No Iterations 0
GAMG:  Solving for p, Initial residual = 0.0610267, Final residual = 4.00144e-07, No Iterations 22
Time = 0.04979s

diagonal:  Solving for Ux, Initial residual = 0, Final residual = 0, No Iterations 0
diagonal:  Solving for Uy, Initial residual = 0, Final residual = 0, No Iterations 0
GAMG:  Solving for p, Initial residual = 0.0669924, Final residual = 7.78524e-07, No Iterations 20
Time = 0.0498s

diagonal:  Solving for Ux, Initial residual = 0, Final residual = 0, No Iterations 0
diagonal:  Solving for Uy, Initial residual = 0, Final residual = 0, No Iterations 0
GAMG:  Solving for p, Initial residual = 0.07853, Final residual = 5.3952e-07, No Iterations 18
Time = 0.04981s

diagonal:  Solving for Ux, Initial residual = 0, Final residual = 0, No Iterations 0
diagonal:  Solving for Uy, Initial residual = 0, Final residual = 0, No Iterations 0
GAMG:  Solving for p, Initial residual = 0.0431887, Final residual = 5.48509e-07, No Iterations 20
Time = 0.04982s

diagonal:  Solving for Ux, Initial residual = 0, Final residual = 0, No Iterations 0
diagonal:  Solving for Uy, Initial residual = 0, Final residual = 0, No Iterations 0
GAMG:  Solving for p, Initial residual = 0.0389585, Final residual = 7.28401e-07, No Iterations 18
Time = 0.04983s

diagonal:  Solving for Ux, Initial residual = 0, Final residual = 0, No Iterations 0
diagonal:  Solving for Uy, Initial residual = 0, Final residual = 0, No Iterations 0
GAMG:  Solving for p, Initial residual = 0.0433204, Final residual = 7.03676e-07, No Iterations 18
Time = 0.04984s

diagonal:  Solving for Ux, Initial residual = 0, Final residual = 0, No Iterations 0
diagonal:  Solving for Uy, Initial residual = 0, Final residual = 0, No Iterations 0
GAMG:  Solving for p, Initial residual = 0.0313465, Final residual = 5.21576e-07, No Iterations 20
Time = 0.04985s

diagonal:  Solving for Ux, Initial residual = 0, Final residual = 0, No Iterations 0
diagonal:  Solving for Uy, Initial residual = 0, Final residual = 0, No Iterations 0
GAMG:  Solving for p, Initial residual = 0.0343415, Final residual = 3.18935e-07, No Iterations 22
Time = 0.04986s

diagonal:  Solving for Ux, Initial residual = 0, Final residual = 0, No Iterations 0
diagonal:  Solving for Uy, Initial residual = 0, Final residual = 0, No Iterations 0
GAMG:  Solving for p, Initial residual = 0.0907556, Final residual = 9.8052e-07, No Iterations 20
Time = 0.04987s

diagonal:  Solving for Ux, Initial residual = 0, Final residual = 0, No Iterations 0
diagonal:  Solving for Uy, Initial residual = 0, Final residual = 0, No Iterations 0
GAMG:  Solving for p, Initial residual = 0.0459163, Final residual = 6.09261e-07, No Iterations 22
Time = 0.04988s

diagonal:  Solving for Ux, Initial residual = 0, Final residual = 0, No Iterations 0
diagonal:  Solving for Uy, Initial residual = 0, Final residual = 0, No Iterations 0
GAMG:  Solving for p, Initial residual = 0.0819939, Final residual = 9.40121e-07, No Iterations 21
Time = 0.04989s

diagonal:  Solving for Ux, Initial residual = 0, Final residual = 0, No Iterations 0
diagonal:  Solving for Uy, Initial residual = 0, Final residual = 0, No Iterations 0
GAMG:  Solving for p, Initial residual = 0.138417, Final residual = 9.47889e-07, No Iterations 18
Time = 0.0499s

diagonal:  Solving for Ux, Initial residual = 0, Final residual = 0, No Iterations 0
diagonal:  Solving for Uy, Initial residual = 0, Final residual = 0, No Iterations 0
GAMG:  Solving for p, Initial residual = 0.0530687, Final residual = 2.95127e-07, No Iterations 22
Time = 0.04991s

diagonal:  Solving for Ux, Initial residual = 0, Final residual = 0, No Iterations 0
diagonal:  Solving for Uy, Initial residual = 0, Final residual = 0, No Iterations 0
GAMG:  Solving for p, Initial residual = 0.05632, Final residual = 6.50258e-07, No Iterations 18
Time = 0.04992s

diagonal:  Solving for Ux, Initial residual = 0, Final residual = 0, No Iterations 0
diagonal:  Solving for Uy, Initial residual = 0, Final residual = 0, No Iterations 0
GAMG:  Solving for p, Initial residual = 0.0575082, Final residual = 8.62676e-07, No Iterations 17
Time = 0.04993s

diagonal:  Solving for Ux, Initial residual = 0, Final residual = 0, No Iterations 0
diagonal:  Solving for Uy, Initial residual = 0, Final residual = 0, No Iterations 0
GAMG:  Solving for p, Initial residual = 0.0362, Final residual = 4.63499e-07, No Iterations 22
Time = 0.04994s

diagonal:  Solving for Ux, Initial residual = 0, Final residual = 0, No Iterations 0
diagonal:  Solving for Uy, Initial residual = 0, Final residual = 0, No Iterations 0
GAMG:  Solving for p, Initial residual = 0.0494976, Final residual = 9.644e-07, No Iterations 17
Time = 0.04995s

diagonal:  Solving for Ux, Initial residual = 0, Final residual = 0, No Iterations 0
diagonal:  Solving for Uy, Initial residual = 0, Final residual = 0, No Iterations 0
GAMG:  Solving for p, Initial residual = 0.0299847, Final residual = 6.59457e-07, No Iterations 18
Time = 0.04996s

diagonal:  Solving for Ux, Initial residual = 0, Final residual = 0, No Iterations 0
diagonal:  Solving for Uy, Initial residual = 0, Final residual = 0, No Iterations 0
GAMG:  Solving for p, Initial residual = 0.0387501, Final residual = 4.49257e-07, No Iterations 22
Time = 0.04997s

diagonal:  Solving for Ux, Initial residual = 0, Final residual = 0, No Iterations 0
diagonal:  Solving for Uy, Initial residual = 0, Final residual = 0, No Iterations 0
GAMG:  Solving for p, Initial residual = 0.0672128, Final residual = 8.0583e-07, No Iterations 20
Time = 0.04998s

diagonal:  Solving for Ux, Initial residual = 0, Final residual = 0, No Iterations 0
diagonal:  Solving for Uy, Initial residual = 0, Final residual = 0, No Iterations 0
GAMG:  Solving for p, Initial residual = 0.0816157, Final residual = 6.68251e-07, No Iterations 16
Time = 0.04999s

diagonal:  Solving for Ux, Initial residual = 0, Final residual = 0, No Iterations 0
diagonal:  Solving for Uy, Initial residual = 0, Final residual = 0, No Iterations 0
GAMG:  Solving for p, Initial residual = 0.0396086, Final residual = 7.7387e-07, No Iterations 17
Time = 0.05s

diagonal:  Solving for Ux, Initial residual = 0, Final residual = 0, No Iterations 0
diagonal:  Solving for Uy, Initial residual = 0, Final residual = 0, No Iterations 0
GAMG:  Solving for p, Initial residual = 0.0374151, Final residual = 6.24207e-07, No Iterations 19
Time = 0.05001s

diagonal:  Solving for Ux, Initial residual = 0, Final residual = 0, No Iterations 0
diagonal:  Solving for Uy, Initial residual = 0, Final residual = 0, No Iterations 0
GAMG:  Solving for p, Initial residual = 0.0668305, Final residual = 6.95006e-07, No Iterations 19
Time = 0.05002s

diagonal:  Solving for Ux, Initial residual = 0, Final residual = 0, No Iterations 0
diagonal:  Solving for Uy, Initial residual = 0, Final residual = 0, No Iterations 0
GAMG:  Solving for p, Initial residual = 0.042161, Final residual = 3.78615e-07, No Iterations 22
Time = 0.05003s

diagonal:  Solving for Ux, Initial residual = 0, Final residual = 0, No Iterations 0
diagonal:  Solving for Uy, Initial residual = 0, Final residual = 0, No Iterations 0
GAMG:  Solving for p, Initial residual = 0.0720912, Final residual = 5.66867e-07, No Iterations 22
Time = 0.05004s

diagonal:  Solving for Ux, Initial residual = 0, Final residual = 0, No Iterations 0
diagonal:  Solving for Uy, Initial residual = 0, Final residual = 0, No Iterations 0
GAMG:  Solving for p, Initial residual = 0.0499975, Final residual = 7.58082e-07, No Iterations 20
Time = 0.05005s

diagonal:  Solving for Ux, Initial residual = 0, Final residual = 0, No Iterations 0
diagonal:  Solving for Uy, Initial residual = 0, Final residual = 0, No Iterations 0
GAMG:  Solving for p, Initial residual = 0.0683815, Final residual = 9.59987e-07, No Iterations 20
Time = 0.05006s

diagonal:  Solving for Ux, Initial residual = 0, Final residual = 0, No Iterations 0
diagonal:  Solving for Uy, Initial residual = 0, Final residual = 0, No Iterations 0
GAMG:  Solving for p, Initial residual = 0.0618751, Final residual = 8.58481e-07, No Iterations 20
Time = 0.05007s

diagonal:  Solving for Ux, Initial residual = 0, Final residual = 0, No Iterations 0
diagonal:  Solving for Uy, Initial residual = 0, Final residual = 0, No Iterations 0
GAMG:  Solving for p, Initial residual = 0.038573, Final residual = 6.96392e-07, No Iterations 20
Time = 0.05008s

diagonal:  Solving for Ux, Initial residual = 0, Final residual = 0, No Iterations 0
diagonal:  Solving for Uy, Initial residual = 0, Final residual = 0, No Iterations 0
GAMG:  Solving for p, Initial residual = 0.0832573, Final residual = 9.30263e-07, No Iterations 15
Time = 0.05009s

diagonal:  Solving for Ux, Initial residual = 0, Final residual = 0, No Iterations 0
diagonal:  Solving for Uy, Initial residual = 0, Final residual = 0, No Iterations 0
GAMG:  Solving for p, Initial residual = 0.0620451, Final residual = 8.19187e-07, No Iterations 17
Time = 0.0501s

diagonal:  Solving for Ux, Initial residual = 0, Final residual = 0, No Iterations 0
diagonal:  Solving for Uy, Initial residual = 0, Final residual = 0, No Iterations 0
GAMG:  Solving for p, Initial residual = 0.0455607, Final residual = 4.05823e-07, No Iterations 22
Time = 0.05011s

diagonal:  Solving for Ux, Initial residual = 0, Final residual = 0, No Iterations 0
diagonal:  Solving for Uy, Initial residual = 0, Final residual = 0, No Iterations 0
GAMG:  Solving for p, Initial residual = 0.0544223, Final residual = 6.32346e-07, No Iterations 19
Time = 0.05012s

diagonal:  Solving for Ux, Initial residual = 0, Final residual = 0, No Iterations 0
diagonal:  Solving for Uy, Initial residual = 0, Final residual = 0, No Iterations 0
GAMG:  Solving for p, Initial residual = 0.0299229, Final residual = 3.37862e-07, No Iterations 22
Time = 0.05013s

diagonal:  Solving for Ux, Initial residual = 0, Final residual = 0, No Iterations 0
diagonal:  Solving for Uy, Initial residual = 0, Final residual = 0, No Iterations 0
GAMG:  Solving for p, Initial residual = 0.0864658, Final residual = 6.83684e-07, No Iterations 17
Time = 0.05014s

diagonal:  Solving for Ux, Initial residual = 0, Final residual = 0, No Iterations 0
diagonal:  Solving for Uy, Initial residual = 0, Final residual = 0, No Iterations 0
GAMG:  Solving for p, Initial residual = 0.0416683, Final residual = 3.18075e-07, No Iterations 22
Time = 0.05015s

diagonal:  Solving for Ux, Initial residual = 0, Final residual = 0, No Iterations 0
diagonal:  Solving for Uy, Initial residual = 0, Final residual = 0, No Iterations 0
GAMG:  Solving for p, Initial residual = 0.0859509, Final residual = 3.58439e-07, No Iterations 22
Time = 0.05016s

diagonal:  Solving for Ux, Initial residual = 0, Final residual = 0, No Iterations 0
diagonal:  Solving for Uy, Initial residual = 0, Final residual = 0, No Iterations 0
GAMG:  Solving for p, Initial residual = 0.0746564, Final residual = 4.79632e-07, No Iterations 20
Time = 0.05017s

diagonal:  Solving for Ux, Initial residual = 0, Final residual = 0, No Iterations 0
diagonal:  Solving for Uy, Initial residual = 0, Final residual = 0, No Iterations 0
GAMG:  Solving for p, Initial residual = 0.0302455, Final residual = 9.99939e-07, No Iterations 21
Time = 0.05018s

diagonal:  Solving for Ux, Initial residual = 0, Final residual = 0, No Iterations 0
diagonal:  Solving for Uy, Initial residual = 0, Final residual = 0, No Iterations 0
GAMG:  Solving for p, Initial residual = 0.0771184, Final residual = 5.53596e-07, No Iterations 19
Time = 0.05019s

diagonal:  Solving for Ux, Initial residual = 0, Final residual = 0, No Iterations 0
diagonal:  Solving for Uy, Initial residual = 0, Final residual = 0, No Iterations 0
GAMG:  Solving for p, Initial residual = 0.0382306, Final residual = 9.12189e-07, No Iterations 16
Time = 0.0502s

diagonal:  Solving for Ux, Initial residual = 0, Final residual = 0, No Iterations 0
diagonal:  Solving for Uy, Initial residual = 0, Final residual = 0, No Iterations 0
GAMG:  Solving for p, Initial residual = 0.0312699, Final residual = 9.65791e-07, No Iterations 15
Time = 0.05021s

diagonal:  Solving for Ux, Initial residual = 0, Final residual = 0, No Iterations 0
diagonal:  Solving for Uy, Initial residual = 0, Final residual = 0, No Iterations 0
GAMG:  Solving for p, Initial residual = 0.0327951, Final residual = 7.01199e-07, No Iterations 17
Time = 0.05022s

diagonal:  Solving for Ux, Initial residual = 0, Final residual = 0, No Iterations 0
diagonal:  Solving for Uy, Initial residual = 0, Final residual = 0, No Iterations 0
GAMG:  Solving for p, Initial residual = 0.0360252, Final residual = 5.02308e-07, No Iterations 16
Time = 0.05023s

diagonal:  Solving for Ux, Initial residual = 0, Final residual = 0, No Iterations 0
diagonal:  Solving for Uy, Initial residual = 0, Final residual = 0, No Iterations 0
GAMG:  Solving for p, Initial residual = 0.0443123, Final residual = 9.15857e-07, No Iterations 16
Time = 0.05024s

diagonal:  Solving for Ux, Initial residual = 0, Final residual = 0, No Iterations 0
diagonal:  Solving for Uy, Initial residual = 0, Final residual = 0, No Iterations 0
GAMG:  Solving for p, Initial residual = 0.0482098, Final residual = 4.43145e-07, No Iterations 22
Time = 0.05025s

diagonal:  Solving for Ux, Initial residual = 0, Final residual = 0, No Iterations 0
diagonal:  Solving for Uy, Initial residual = 0, Final residual = 0, No Iterations 0
GAMG:  Solving for p, Initial residual = 0.0655046, Final residual = 5.10121e-07, No Iterations 18
Time = 0.05026s

diagonal:  Solving for Ux, Initial residual = 0, Final residual = 0, No Iterations 0
diagonal:  Solving for Uy, Initial residual = 0, Final residual = 0, No Iterations 0
GAMG:  Solving for p, Initial residual = 0.0451603, Final residual = 4.94463e-07, No Iterations 20
Time = 0.05027s

diagonal:  Solving for Ux, Initial residual = 0, Final residual = 0, No Iterations 0
diagonal:  Solving for Uy, Initial residual = 0, Final residual = 0, No Iterations 0
GAMG:  Solving for p, Initial residual = 0.0363371, Final residual = 6.16593e-07, No Iterations 20
Time = 0.05028s

diagonal:  Solving for Ux, Initial residual = 0, Final residual = 0, No Iterations 0
diagonal:  Solving for Uy, Initial residual = 0, Final residual = 0, No Iterations 0
GAMG:  Solving for p, Initial residual = 0.161536, Final residual = 4.9616e-07, No Iterations 22
Time = 0.05029s

diagonal:  Solving for Ux, Initial residual = 0, Final residual = 0, No Iterations 0
diagonal:  Solving for Uy, Initial residual = 0, Final residual = 0, No Iterations 0
GAMG:  Solving for p, Initial residual = 0.0350589, Final residual = 9.11051e-07, No Iterations 21
Time = 0.0503s

diagonal:  Solving for Ux, Initial residual = 0, Final residual = 0, No Iterations 0
diagonal:  Solving for Uy, Initial residual = 0, Final residual = 0, No Iterations 0
GAMG:  Solving for p, Initial residual = 0.119284, Final residual = 6.71761e-07, No Iterations 17
Time = 0.05031s

diagonal:  Solving for Ux, Initial residual = 0, Final residual = 0, No Iterations 0
diagonal:  Solving for Uy, Initial residual = 0, Final residual = 0, No Iterations 0
GAMG:  Solving for p, Initial residual = 0.0479978, Final residual = 3.53458e-07, No Iterations 22
Time = 0.05032s

diagonal:  Solving for Ux, Initial residual = 0, Final residual = 0, No Iterations 0
diagonal:  Solving for Uy, Initial residual = 0, Final residual = 0, No Iterations 0
GAMG:  Solving for p, Initial residual = 0.0486215, Final residual = 3.95191e-07, No Iterations 22
Time = 0.05033s

diagonal:  Solving for Ux, Initial residual = 0, Final residual = 0, No Iterations 0
diagonal:  Solving for Uy, Initial residual = 0, Final residual = 0, No Iterations 0
GAMG:  Solving for p, Initial residual = 0.0715389, Final residual = 6.69173e-07, No Iterations 20
Time = 0.05034s

diagonal:  Solving for Ux, Initial residual = 0, Final residual = 0, No Iterations 0
diagonal:  Solving for Uy, Initial residual = 0, Final residual = 0, No Iterations 0
GAMG:  Solving for p, Initial residual = 0.0931119, Final residual = 9.89731e-07, No Iterations 21
Time = 0.05035s

diagonal:  Solving for Ux, Initial residual = 0, Final residual = 0, No Iterations 0
diagonal:  Solving for Uy, Initial residual = 0, Final residual = 0, No Iterations 0
GAMG:  Solving for p, Initial residual = 0.0833241, Final residual = 4.70151e-07, No Iterations 18
Time = 0.05036s

diagonal:  Solving for Ux, Initial residual = 0, Final residual = 0, No Iterations 0
diagonal:  Solving for Uy, Initial residual = 0, Final residual = 0, No Iterations 0
GAMG:  Solving for p, Initial residual = 0.0356257, Final residual = 3.09716e-07, No Iterations 22
Time = 0.05037s

diagonal:  Solving for Ux, Initial residual = 0, Final residual = 0, No Iterations 0
diagonal:  Solving for Uy, Initial residual = 0, Final residual = 0, No Iterations 0
GAMG:  Solving for p, Initial residual = 0.0710105, Final residual = 5.31068e-07, No Iterations 16
Time = 0.05038s

diagonal:  Solving for Ux, Initial residual = 0, Final residual = 0, No Iterations 0
diagonal:  Solving for Uy, Initial residual = 0, Final residual = 0, No Iterations 0
GAMG:  Solving for p, Initial residual = 0.0603309, Final residual = 9.46121e-07, No Iterations 17
Time = 0.05039s

diagonal:  Solving for Ux, Initial residual = 0, Final residual = 0, No Iterations 0
diagonal:  Solving for Uy, Initial residual = 0, Final residual = 0, No Iterations 0
